651
Terminal OH atoms
O  51.8977  43.2785  40.6365
O  44.1134  53.0335  57.2004
O  46.3431  48.3881  42.2082
O  66.2589  55.0218  50.4585
O  50.1557  57.8778  54.2773
O  63.1177  39.3425  58.4652
O  65.1825  45.5527  59.5544
O  48.0423  59.4688  56.0360
O  44.4359  46.7282  41.2846
O  58.6981  52.1169  46.1990
O  51.2885  40.5296  58.0845
O  50.7825  52.7785  56.8572
O  66.9900  40.3151  53.0882
O  45.8394  57.3722  50.1125
O  67.1151  59.3134  56.4334
O  47.7140  40.3551  60.5370
O  49.8806  41.3478  66.4379
O  59.2479  46.1227  61.5575
O  60.9620  53.7631  64.2656
O  67.3035  40.0557  68.8077
O  58.4383  39.7049  72.0434
O  43.3595  52.8691  62.0131
O  63.3797  43.6609  65.4195
O  50.6988  40.2259  70.0160
O  53.7358  42.2214  70.7774
O  48.2514  52.5008  63.7159
O  57.9451  43.2845  79.2488
O  56.8986  58.7398  69.1658
O  56.6547  51.1330  65.7033
O  47.9007  52.8610  66.3454
O  66.9281  49.4815  68.2473
O  45.8095  53.6314  73.1485
O  63.2666  45.2875  79.0504
O  67.5144  52.0289  63.6337
O  61.0660  56.6065  66.8485
O  48.5168  49.8060  63.3144
O  64.7350  51.4831  63.6602
O  41.3675  60.2059  67.2471
O  53.1570  42.1293  60.7435
O  67.4049  49.3858  72.8152
O  66.1735  42.3598  88.7657
O  53.7719  43.3176  94.0401
O  43.3161  48.2878  88.9804
O  46.6463  45.6025  85.9037
O  62.7261  45.8834  88.8669
O  43.4570  58.0708  92.6687
O  41.2285  44.5208  90.6585
O  45.0574  56.9169  94.5532
O  50.9152  50.2181  99.4196
O  57.5593  51.3274  89.2681
O  56.3246  48.7724  94.4711
O  57.7533  50.7220  99.4325
O  52.0846  46.9234  82.3214
O  52.4332  42.3478  91.8837
O  59.9847  54.8894  86.7571
O  60.3481  50.2616  85.9656
O  61.1874  57.7615  103.0420
O  49.7824  54.9405  96.1455
O  42.8898  60.1456  94.3270
O  59.0835  40.0181  86.7880
O  55.6142  48.7862  102.0210
O  66.3889  50.5051  115.6200
O  47.4320  45.6367  117.9510
O  53.7801  57.8318  117.1270
O  48.9483  54.0640  120.4270
O  41.1592  43.0371  105.9910
O  46.4857  53.0517  104.2460
O  42.8643  41.6229  110.9580
O  52.0450  45.8456  104.8780
O  47.7242  40.2917  111.1550
O  53.7170  58.1836  104.1660
O  50.4975  54.1224  117.3460
O  63.4698  50.4326  117.3870
O  53.3657  50.5985  122.3200
O  52.0726  70.4769  54.7203
O  47.7276  72.5653  45.1739
O  57.8362  61.9109  52.0598
O  46.6497  77.7105  38.9773
O  50.4763  81.6297  49.7906
O  56.8580  66.7849  51.7095
O  57.4646  70.8393  45.5907
O  48.8853  64.5831  41.3347
O  50.3686  77.2582  41.5005
O  48.4445  79.6884  57.0526
O  62.2576  66.7957  49.9075
O  63.2590  75.5175  42.6193
O  45.9568  63.1967  52.3779
O  58.4623  81.5830  48.3776
O  56.6542  64.6751  40.3389
O  66.2118  69.9090  56.8062
O  53.8887  78.7286  55.9514
O  41.1719  63.0511  55.7406
O  45.7012  76.2727  68.3577
O  40.9945  70.2597  61.5021
O  62.4899  68.8392  61.0164
O  56.3380  69.4648  66.7350
O  58.6748  66.2296  65.0835
O  47.4360  69.9762  64.4608
O  54.0936  78.7869  77.4119
O  47.3871  66.3637  79.3322
O  49.8806  71.6343  62.7568
O  44.9231  74.0464  67.0157
O  66.6229  66.2672  73.2268
O  48.0844  67.3647  73.5030
O  67.2105  78.9512  66.4673
O  58.6075  60.6859  68.4848
O  61.2673  65.7354  83.4582
O  56.6302  60.5572  98.3213
O  43.7650  77.2620  95.7088
O  61.2441  76.5461  82.7869
O  49.5483  75.4536  100.7570
O  51.0470  63.9469  99.5108
O  66.5306  72.6831  94.7985
O  48.3987  67.6591  90.9876
O  44.8324  60.8371  103.6340
O  62.0202  69.9752  91.6590
O  47.6303  63.4096  93.3320
O  48.2889  72.2368  86.1666
O  48.0219  66.6654  101.8390
O  40.1253  65.9214  84.1741
O  46.2948  67.6418  111.4200
O  56.3827  65.4367  106.8800
O  49.1643  62.5231  113.5750
O  49.5619  62.2437  116.2100
O  45.0772  68.7509  122.1580
O  65.9903  74.2888  123.2280
O  50.5959  64.3188  111.6660
O  46.0958  79.9989  107.6380
O  45.1781  78.3276  121.0240
O  41.7061  66.0758  105.4580
O  53.4199  79.2019  116.8620
O  55.1609  69.0358  117.7430
O  65.2003  78.5719  124.6410
O  46.9352  95.3115  58.5904
O  45.9172  96.7848  39.4498
O  54.3635  91.0685  52.2617
O  40.4461  84.1629  51.3419
O  50.2257  103.1390  56.7667
O  45.2525  86.7466  58.5583
O  41.7021  94.3848  54.4104
O  48.5093  93.4585  47.5023
O  58.1123  88.2176  54.0429
O  40.8187  93.6686  40.6367
O  63.9877  91.2886  51.9574
O  56.4914  83.4914  55.2363
O  63.6853  97.7866  48.5080
O  60.1117  97.0841  52.7829
O  48.0371  83.3322  50.2414
O  67.6808  94.4017  51.6960
O  51.3508  91.8777  50.6538
O  52.0518  91.8355  56.9101
O  67.0504  89.1162  51.2451
O  47.0270  82.9816  40.0519
O  39.8500  102.2480  56.1117
O  50.7438  93.0504  60.9729
O  57.1134  96.8438  76.2737
O  62.2026  90.5407  63.6141
O  43.2486  103.1290  69.7918
O  54.2741  83.8170  63.9250
O  57.7352  85.5743  67.1423
O  61.8209  84.7511  68.3416
O  44.3899  98.2320  71.0169
O  40.6720  101.5610  73.6067
O  50.0557  92.3064  72.0205
O  66.0945  94.7843  80.4173
O  61.9004  82.2227  69.1484
O  61.5920  95.9232  84.6811
O  47.0724  84.9418  83.1655
O  42.0153  102.7920  91.0696
O  41.2212  91.5813  93.4528
O  63.8213  93.3161  84.3237
O  65.6085  98.5418  89.9302
O  40.7270  100.2830  90.7666
O  44.8388  90.1844  119.0120
O  64.1693  99.3519  115.7160
O  44.8059  92.9564  113.9380
O  54.2295  87.3721  104.9070
O  56.3531  94.9044  114.7350
O  39.1309  97.1660  124.8910
O  39.1596  107.5860  58.9319
O  61.7251  106.3380  45.6057
O  41.2764  109.1830  58.1746
O  58.0248  118.3310  55.9747
O  58.9499  113.4160  44.9168
O  60.6084  108.6700  42.9929
O  64.1156  120.3450  58.4909
O  65.6328  112.9050  48.8301
O  43.9407  109.1530  58.4312
O  39.6651  109.8030  55.5255
O  64.9908  118.9340  56.2846
O  66.9109  109.5030  45.0156
O  54.0695  116.7200  53.1534
O  60.1531  105.1060  43.7009
O  43.8248  116.2290  61.8935
O  59.7647  104.1780  69.5249
O  51.9971  113.4540  77.3318
O  51.0445  123.6240  69.5608
O  57.9351  120.5080  62.2204
O  60.4996  108.2940  68.5987
O  57.8307  124.5950  65.1059
O  63.1849  120.3050  75.0540
O  53.7165  115.6740  69.7050
O  65.7992  111.1750  71.1057
O  56.7103  120.8170  75.6934
O  46.4625  122.5540  65.3254
O  64.2590  120.6820  79.1488
O  63.5668  117.2780  70.4337
O  55.4705  117.3660  71.9086
O  58.7388  119.5810  65.1566
O  60.6407  120.6920  66.7665
O  56.8571  114.0500  66.1152
O  66.4669  122.5150  79.5141
O  60.0462  113.4020  100.1620
O  59.3595  114.9120  90.0295
O  42.3166  108.5840  95.1993
O  51.9772  119.9250  94.7881
O  43.4805  111.0110  95.7010
O  57.2836  108.2100  96.3411
O  46.1131  107.7950  99.1101
O  42.6960  113.6980  97.7814
O  46.5933  103.6080  93.3821
O  61.8579  117.5290  87.8011
O  57.1818  109.5030  86.5045
O  63.1128  120.6770  94.6791
O  57.9661  107.9210  88.5033
O  57.9020  112.6830  85.3202
O  46.6044  123.1560  98.2128
O  56.7007  108.1560  107.2100
O  45.2629  115.6230  114.2750
O  64.6306  114.5470  123.6890
O  50.0199  118.9690  122.5800
O  50.7863  123.2340  121.3860
O  55.1295  113.2840  106.9850
O  46.0786  122.8280  117.2420
O  50.9447  116.7090  108.1330
O  47.2328  106.2720  103.6700
O  96.0399  44.0695  58.1729
O  87.0548  44.7557  39.3108
O  79.6784  54.6677  48.8750
O  72.1283  46.3124  46.0207
O  72.8137  52.8472  49.7398
O  87.5948  43.2363  52.4296
O  71.9087  45.6181  56.3775
O  80.2289  53.1512  51.0765
O  76.1312  42.2563  52.4611
O  71.7142  57.8192  58.8903
O  86.7111  47.4450  46.6966
O  80.5580  49.8247  57.1136
O  82.4566  49.5353  59.1914
O  68.1746  41.9834  59.1253
O  95.4621  39.9296  45.1664
O  92.6642  40.9929  42.5537
O  67.6653  52.7995  51.0600
O  83.5557  41.0332  39.6198
O  90.2834  41.7390  68.5636
O  78.8889  40.4801  80.0006
O  85.1946  56.1366  79.8417
O  69.2006  45.0110  75.5318
O  95.7422  47.0868  80.2039
O  82.2389  53.8970  68.5012
O  90.1399  56.8049  78.2387
O  75.1687  52.8835  80.8027
O  89.7562  45.3489  69.4448
O  81.7394  46.6049  76.5774
O  75.4930  59.9197  62.1646
O  85.9483  41.2884  67.1706
O  81.9160  46.7202  73.9240
O  69.7476  53.8918  81.1298
O  69.4437  57.1945  87.5859
O  78.2867  41.6679  101.7050
O  82.0439  39.0384  100.1720
O  73.3377  40.0525  99.6131
O  68.7907  58.9882  85.5920
O  89.7610  57.7920  92.5033
O  79.0984  43.5944  117.6430
O  72.5159  46.7133  108.7430
O  81.8420  55.6538  109.8440
O  82.6331  40.2430  105.8830
O  84.2490  54.0955  117.6700
O  76.6452  55.4805  114.6740
O  78.1562  39.6163  107.0390
O  74.4253  42.0184  123.1660
O  76.4375  48.8235  122.6060
O  94.8462  49.6607  116.1200
O  77.4885  56.8991  111.7850
O  71.5127  49.6403  112.1420
O  81.3756  59.3727  114.9420
O  84.2434  67.0817  54.3632
O  77.4468  77.3694  56.9317
O  84.2785  63.8653  58.2893
O  73.9711  79.0374  55.2108
O  76.9752  69.0847  59.1106
O  79.5417  75.4992  52.0994
O  68.4077  71.8464  61.4460
O  84.4819  65.9890  65.3235
O  71.7869  72.4870  67.6588
O  90.9700  74.3028  65.6870
O  72.9893  74.5354  79.7878
O  75.4294  76.4581  66.2260
O  93.0081  63.4978  75.9311
O  92.2884  76.4619  64.7242
O  68.4947  65.1398  75.3449
O  76.0842  74.0665  61.6916
O  77.6294  67.7367  64.5480
O  83.5260  64.2714  71.8391
O  88.5828  60.8126  81.3584
O  71.3052  81.8055  73.4374
O  76.0625  67.0529  78.8201
O  79.7539  64.7212  97.4112
O  91.3853  63.3587  85.8141
O  76.8601  69.4985  85.5607
O  67.7040  77.9486  93.8267
O  88.0986  80.7188  86.4578
O  95.1846  65.4542  83.2630
O  91.0314  75.4228  112.7180
O  87.2855  79.4992  113.2580
O  80.9351  74.9945  114.6840
O  87.7825  69.6807  115.2070
O  78.6274  73.7820  115.1600
O  80.8834  73.3492  116.7050
O  83.8105  68.1767  114.3420
O  81.4807  67.0495  110.6170
O  77.5389  67.6557  113.8810
O  95.0864  70.0925  119.6370
O  80.4184  79.2114  116.9140
O  89.8928  81.6591  117.8470
O  93.2645  85.1528  40.1185
O  71.9581  83.3221  53.5665
O  93.1393  85.5965  44.7626
O  75.6691  82.5271  48.7100
O  82.8819  93.6319  45.6295
O  79.7237  91.0778  55.5343
O  86.5492  82.0499  47.3262
O  95.6330  86.3579  40.2879
O  82.3533  87.9610  47.2683
O  76.8626  87.9592  51.9892
O  70.1491  83.3122  55.5755
O  81.0269  88.1153  43.9262
O  72.4932  86.7265  42.0162
O  76.0458  94.3138  41.4729
O  86.3371  85.9057  60.1500
O  88.1925  94.1631  61.8207
O  81.6432  100.3930  80.2590
O  70.5754  86.2289  77.9732
O  79.4896  95.7580  81.8188
O  86.2689  95.5392  63.1393
O  94.7817  100.8630  75.0193
O  70.4775  90.8419  78.6581
O  86.9649  96.2053  94.2704
O  88.4891  90.9040  83.9361
O  94.1049  93.9701  86.9197
O  70.3421  98.3986  83.8044
O  94.0660  100.4460  100.5090
O  86.6164  94.6080  96.5081
O  79.6034  93.4173  97.8857
O  96.1965  89.8744  90.6528
O  87.0778  91.4801  99.2269
O  92.3161  98.6313  99.0549
O  93.8207  103.0590  100.9940
O  90.6880  92.7485  92.8518
O  88.2057  91.8501  92.3792
O  74.0154  82.2167  91.8313
O  72.2210  87.9671  98.7705
O  81.5786  103.3730  94.3205
O  82.7297  94.1921  120.8410
O  74.0937  88.2770  121.7260
O  69.0482  92.0428  110.7040
O  87.9104  86.3379  121.8610
O  90.5401  87.3810  112.1480
O  69.3214  86.2714  104.5340
O  78.9466  92.2370  113.7240
O  84.4734  89.5886  122.6390
O  75.9146  94.8221  107.4440
O  79.6355  89.6140  113.1560
O  87.2506  102.8060  106.1220
O  84.1030  82.7311  123.8360
O  96.0704  92.1965  109.6280
O  76.8160  86.1618  124.9130
O  75.1472  118.3350  46.6350
O  69.1486  110.4600  39.8920
O  70.1990  119.2430  42.5458
O  84.1676  124.8430  54.0327
O  78.0825  118.0200  45.3507
O  96.1359  114.1770  57.6050
O  81.3512  107.6280  70.2499
O  86.4756  104.7640  75.2654
O  68.0885  124.1220  67.1974
O  87.2028  115.2840  78.3023
O  79.6743  109.9430  68.4617
O  91.8340  124.9680  80.2107
O  68.4442  124.8060  79.8408
O  86.8267  121.6820  69.2893
O  93.7711  108.4120  81.6462
O  93.6877  107.5460  76.2998
O  95.7870  115.7200  78.5299
O  89.2089  108.0400  72.3396
O  89.0489  124.0480  71.7737
O  84.6885  106.6280  74.3575
O  93.3785  124.0160  74.1818
O  92.6522  116.9200  85.3544
O  78.7895  107.4210  90.6582
O  83.8567  105.3060  92.2152
O  92.1331  111.5570  92.9291
O  87.6834  106.1700  89.0752
O  70.6281  124.7280  100.8270
O  77.3007  110.4770  101.8740
O  81.3457  104.9280  98.5839
O  93.5689  109.4160  93.5104
O  70.8470  105.2940  89.3454
O  72.1623  118.8860  88.7301
O  71.9529  120.3200  91.8477
O  85.1749  112.1070  83.3351
O  76.2024  112.1160  93.3689
O  79.7100  115.5760  98.4096
O  91.8683  113.5210  98.5566
O  70.2872  117.8710  117.7700
O  75.2468  114.5540  103.9570
O  75.1509  121.5260  122.6880
O  71.8401  109.3540  112.5980
O  76.3551  118.1770  110.3070
O  94.8435  121.0410  116.7510
O  92.9412  117.4050  104.8340
O  74.3955  119.7900  118.8480
O  96.7128  52.4304  50.1284
O  114.4440  49.4087  59.4631
O  98.4975  42.6111  41.7885
O  121.7150  40.0365  55.7783
O  110.7300  52.6950  50.0290
O  116.4190  53.8660  46.4296
O  101.1430  48.9252  57.0865
O  114.5840  44.1790  59.2483
O  118.4300  44.4708  60.1752
O  101.4550  39.1249  58.5240
O  117.3030  48.4598  57.5026
O  102.5880  58.7043  58.5804
O  118.2760  54.1588  59.6708
O  98.2538  57.3256  66.1914
O  109.7190  42.2461  74.5998
O  96.7971  45.7551  62.8535
O  106.9420  49.0767  65.4749
O  108.2900  41.8111  66.7958
O  105.1520  42.3315  73.8656
O  109.0470  47.6125  64.7705
O  107.3100  49.1158  71.7513
O  115.5120  40.8708  72.1253
O  120.6360  44.1796  81.6265
O  114.0680  54.9046  68.0174
O  109.5270  56.0299  80.4171
O  118.7420  58.2973  81.7596
O  96.4456  51.8533  67.0378
O  109.7100  43.6473  91.1989
O  116.6510  50.6666  93.6921
O  112.9190  46.7775  90.4463
O  112.0260  54.0199  101.7480
O  115.5960  47.1639  91.1775
O  118.2510  49.8173  82.5324
O  112.6350  55.6938  82.2329
O  103.0640  46.2893  103.6250
O  124.2780  40.5628  119.1140
O  122.5200  46.9617  109.2380
O  99.5492  58.8784  122.3560
O  121.0220  42.6691  117.2180
O  104.9550  42.9695  112.1500
O  112.8560  49.7359  106.1620
O  120.4630  57.3450  108.9210
O  99.0174  57.7559  114.2150
O  98.8122  53.3640  117.0210
O  113.2960  52.2936  105.5870
O  102.5020  42.1888  107.0670
O  107.0750  70.4919  39.2212
O  116.5290  81.0268  45.2174
O  106.8130  63.4196  48.1167
O  108.3420  77.3012  51.5689
O  97.7871  67.9065  58.6238
O  106.7330  79.4681  50.3418
O  121.3340  73.2111  59.3213
O  106.0350  75.0489  53.3205
O  113.3880  76.6997  40.2787
O  123.6700  60.7372  39.2132
O  124.3970  69.7346  50.1357
O  116.1690  74.8468  59.9851
O  112.2310  66.9225  74.5503
O  109.8110  61.5655  76.8676
O  110.5870  70.3820  64.5032
O  113.1460  61.7898  70.5251
O  111.6250  63.0798  75.2874
O  103.3720  69.1641  67.7528
O  114.6830  69.4227  66.0894
O  114.4370  72.4126  62.3200
O  106.8530  76.8097  80.2161
O  111.5540  81.3559  79.9215
O  105.2740  67.1300  78.7418
O  117.1870  80.8980  65.9740
O  102.5200  81.1772  79.5257
O  114.9730  68.1166  81.3034
O  113.6360  67.4787  72.3835
O  102.8930  70.6253  79.2750
O  96.4487  67.1271  88.2983
O  112.4780  70.8454  87.7435
O  110.1110  72.5871  94.8126
O  106.7500  66.0789  87.3019
O  102.3950  76.8592  86.4669
O  111.2290  74.5184  85.1925
O  113.5960  61.7984  90.9407
O  115.3900  71.6882  95.9263
O  109.9920  70.6365  85.9772
O  107.2980  79.2051  98.2292
O  97.2498  72.2065  90.1651
O  114.7160  66.6114  88.2179
O  124.9330  60.9580  92.7843
O  111.9090  63.6377  97.1386
O  111.5500  74.1609  91.7976
O  104.9070  73.1983  84.7695
O  97.9342  76.7995  87.5688
O  123.7400  67.1565  102.2620
O  114.7360  69.3097  87.6546
O  117.8020  72.5172  94.8569
O  109.7320  75.5539  82.3250
O  112.2470  60.8067  121.7070
O  98.5743  68.5510  115.9180
O  116.9110  75.6024  124.0280
O  110.5200  73.0578  109.6850
O  99.0861  70.3051  113.8470
O  118.0570  73.0258  115.2820
O  103.7360  71.7704  115.1340
O  110.8410  73.3606  112.6370
O  114.4390  63.0256  104.7960
O  118.9000  77.3922  123.6210
O  112.3360  61.4640  104.9650
O  104.8560  74.4968  122.8000
O  108.8770  72.2695  107.7320
O  120.1180  100.5320  59.5158
O  113.7310  86.7478  54.1057
O  115.5310  89.1357  54.5797
O  108.9330  84.1643  56.4346
O  104.6040  98.5626  49.4893
O  114.7570  83.4560  40.8613
O  123.2200  84.1752  40.7219
O  120.3800  89.3625  40.0405
O  111.7950  102.6830  45.7543
O  111.5910  99.4720  55.8153
O  121.9870  96.2666  43.3744
O  113.2150  95.9321  56.0761
O  118.5250  102.7350  47.7852
O  124.9500  91.5104  39.2128
O  117.7170  84.9979  64.9012
O  124.8350  83.8810  71.7608
O  118.3170  86.6452  69.6876
O  120.5140  89.7725  81.3567
O  117.8950  93.0187  75.3607
O  114.5870  90.2310  75.4032
O  123.2460  98.3453  65.9467
O  120.0290  95.0801  76.0083
O  115.1210  102.3270  67.2495
O  101.5620  102.0360  74.7145
O  116.2990  97.5900  81.9869
O  104.6720  90.0350  81.6633
O  121.4360  90.9448  89.2611
O  96.5275  100.4410  99.4176
O  107.2160  99.0664  90.9029
O  116.2730  102.0390  85.8358
O  117.2940  99.5311  85.6648
O  121.1850  98.5351  96.1449
O  105.8020  82.5097  94.2998
O  97.1642  92.5785  93.4546
O  100.7000  102.3960  98.7096
O  97.7227  101.9820  93.6899
O  103.9160  86.8430  92.5089
O  96.3829  101.2910  85.3239
O  120.9970  93.5711  86.0439
O  98.0455  97.9627  89.2600
O  109.1600  84.4191  119.1050
O  107.8190  90.9069  113.6970
O  103.2050  94.4461  105.0630
O  119.8590  89.0278  116.3910
O  101.7410  96.2910  113.7350
O  120.0580  83.1424  122.3010
O  116.7400  93.8840  123.7890
O  104.5820  97.7130  120.7230
O  106.6640  97.4109  118.7400
O  117.8960  85.3304  107.5200
O  96.9033  98.7040  105.8660
O  97.5915  94.5163  107.7010
O  117.9550  96.4257  119.8200
O  121.4500  84.1679  124.3560
O  121.8950  97.6450  121.1070
O  112.9390  89.9325  123.8380
O  114.0540  87.8875  113.0990
O  120.5520  118.5690  46.3945
O  116.4150  105.6840  42.3602
O  113.6160  106.9990  55.8718
O  120.8780  109.9840  40.7256
O  98.6396  115.6270  55.7239
O  97.4992  122.8260  50.6069
O  97.8295  104.3560  43.3755
O  108.2280  109.7100  49.5609
O  118.9390  124.7720  41.9574
O  121.2490  108.7500  57.2951
O  101.2920  124.4160  40.3214
O  112.3620  115.4130  51.7706
O  98.3638  103.6030  57.1484
O  119.1110  118.1600  40.8672
O  122.5960  104.9060  41.4628
O  118.3990  104.8330  45.3824
O  99.8107  103.7110  39.4105
O  100.3600  112.0640  74.9404
O  123.0400  107.4310  71.3998
O  104.7860  106.3030  73.7877
O  100.4580  110.9920  69.3294
O  123.0370  109.3030  80.3356
O  99.7290  114.4160  67.6426
O  121.8710  107.2290  74.9112
O  123.9100  106.7770  80.1816
O  102.2940  120.0690  64.4666
O  99.4129  116.1570  75.5879
O  102.8700  108.9080  78.3224
O  109.6440  122.9620  69.8632
O  123.3530  109.4560  75.0618
O  98.0936  113.6690  74.8968
O  99.1706  118.0760  70.5096
O  103.8630  111.4340  81.9065
O  104.7500  117.6590  91.2194
O  107.1940  116.8980  90.4188
O  112.2410  117.8880  84.7992
O  109.8040  122.7100  88.3257
O  109.5410  120.4940  102.8570
O  100.1360  118.1120  99.1595
O  99.5812  104.3470  97.1662
O  99.6147  124.2930  85.5760
O  104.3560  111.3770  87.8009
O  97.4040  117.1200  101.1830
O  110.0090  124.1740  99.5623
O  102.1190  107.8430  96.1915
O  99.6771  112.9770  94.7647
O  102.2040  119.3150  83.2756
O  119.8190  114.0220  123.8960
O  117.7540  116.1710  107.5260
O  119.0960  124.1600  112.8180
O  117.2160  113.6200  114.4050
O  108.0560  115.2680  121.7250
O  105.1720  121.6110  107.7980
O  104.8380  118.5580  114.8990
O  123.9150  122.9300  107.9000
O  107.1490  119.7660  114.9940
O  104.3660  124.3980  121.0480
O  102.6610  120.2630  112.7920
O  116.3100  116.6940  114.6660
O  97.2424  123.9910  108.1310
O  108.9640  107.3570  121.1480
O  121.5230  121.5160  108.8710
O  108.1210  119.8140  124.0510
