692
Terminal OH atoms
O  39.2099  56.5885  42.1849
O  39.1344  58.8607  50.0369
O  58.3844  46.2633  56.9980
O  50.6930  51.7967  57.7581
O  42.1528  48.7817  46.5767
O  63.7466  50.2948  51.3117
O  41.9009  50.0709  42.9234
O  50.0573  46.1765  48.4938
O  62.7721  39.5039  50.0880
O  59.3457  49.6064  56.0780
O  59.4954  51.9013  57.5555
O  48.5945  58.0149  50.0028
O  65.0011  52.0852  53.0779
O  60.7725  41.6950  55.7232
O  53.3251  52.7748  57.9791
O  60.3555  59.4105  38.9595
O  56.6151  42.8988  65.3619
O  46.0773  52.9551  67.5497
O  61.1084  44.1001  68.5678
O  60.9042  56.5124  64.3269
O  63.8851  57.5937  79.4552
O  40.2819  51.9141  72.8296
O  39.0569  51.4010  61.5471
O  41.0952  48.0267  69.2913
O  52.3511  54.6811  72.6138
O  55.5382  50.2540  68.3335
O  56.1619  58.2666  62.7678
O  62.3604  49.1528  72.6163
O  48.8556  39.3766  89.3448
O  50.8152  43.2140  87.6767
O  49.1627  53.2012  86.0470
O  53.3893  49.8701  89.7205
O  52.2903  50.4184  94.4559
O  46.3846  42.3892  83.3184
O  45.3161  44.4948  93.6169
O  57.8254  49.4774  99.6620
O  66.0913  45.2154  86.2244
O  41.7366  42.0388  84.0160
O  63.5836  50.3777  100.8310
O  57.0431  59.2800  91.4544
O  65.4928  47.7548  85.4276
O  43.6420  60.1085  95.4130
O  56.6487  45.5697  98.5713
O  55.4025  42.8441  93.8933
O  55.4516  60.0991  86.5571
O  64.2204  49.4603  96.8422
O  47.6516  47.0289  90.5001
O  55.8906  49.1782  88.9255
O  66.9242  43.0883  100.5900
O  45.8933  43.2160  119.8640
O  42.1099  40.0003  114.6990
O  41.6645  54.1566  108.0690
O  44.5104  44.8243  112.5540
O  38.9946  50.0797  107.7470
O  60.4681  57.6070  114.4610
O  45.7750  49.5732  116.6550
O  42.1162  41.8810  123.0520
O  64.5469  58.7467  117.3460
O  60.5354  42.4097  115.5580
O  46.7626  58.6930  104.3320
O  39.0181  52.0067  103.4600
O  60.0356  52.8317  120.0410
O  60.7867  45.8673  105.6720
O  39.6545  48.5764  123.6260
O  53.1775  56.5600  115.9750
O  54.7341  70.9412  51.3903
O  55.9664  68.5565  51.6964
O  49.9686  68.6902  52.2572
O  62.3354  63.0478  43.5527
O  64.1017  70.9831  53.8989
O  60.8445  61.0235  73.3004
O  41.3808  61.7647  74.8885
O  54.1604  69.8735  69.5873
O  59.8056  65.7700  64.8493
O  55.3140  62.6804  61.3413
O  51.6362  62.8965  69.2104
O  46.6321  71.7519  79.9063
O  57.7093  64.3160  75.7991
O  54.5283  73.1146  70.1852
O  42.7357  65.2975  65.8934
O  63.8817  73.2076  67.2619
O  56.8824  78.9813  69.2294
O  59.0071  78.8761  78.7751
O  42.0753  60.1542  79.1578
O  60.8835  60.8765  78.2025
O  48.4541  68.2883  86.3029
O  40.5018  67.7979  99.7716
O  39.5207  73.8682  89.5859
O  66.6296  79.5357  86.8201
O  43.5299  62.3561  102.3260
O  55.8933  60.5770  114.3830
O  57.1161  80.0415  108.3120
O  51.3536  74.1453  114.1890
O  53.8908  70.9884  117.1660
O  39.4181  74.6456  110.7310
O  62.5214  62.9710  116.7060
O  57.1698  64.2150  121.3020
O  63.5009  60.4129  123.8450
O  42.2923  76.8534  109.5030
O  60.7822  72.9617  111.3890
O  63.4642  72.0561  121.9090
O  44.4141  75.1752  105.7710
O  56.0802  75.7349  103.3670
O  56.4638  67.9314  118.7700
O  63.2479  64.7881  118.4870
O  56.2878  71.1748  109.6350
O  66.6419  80.0325  107.4540
O  61.5555  62.8697  119.2420
O  61.1382  94.1170  39.2524
O  39.8109  99.5658  48.1257
O  65.5631  90.9397  42.4198
O  48.9536  96.9077  45.0091
O  53.0882  95.7113  43.8064
O  46.5886  88.1177  73.0414
O  65.1447  83.6589  80.0283
O  40.0768  89.8480  60.9897
O  44.5009  81.7732  66.2727
O  64.1777  101.9770  70.1503
O  52.5843  99.6290  61.8682
O  61.1977  98.0353  80.5849
O  59.4799  98.3715  82.6410
O  63.8248  92.1611  85.2590
O  60.1534  86.1230  94.6145
O  39.1180  90.3907  85.8498
O  39.7801  83.5739  99.4797
O  41.0586  89.9055  81.8494
O  59.4977  94.5449  96.0027
O  61.9570  91.2708  95.6758
O  64.1360  87.9100  92.4954
O  64.9705  100.3020  83.7112
O  54.3478  82.6672  97.0716
O  51.3023  101.6890  93.3415
O  52.6794  99.9748  101.2350
O  66.9573  81.6374  100.5110
O  66.3859  82.1569  114.2760
O  62.5733  98.5169  116.1200
O  56.0076  83.2069  104.6020
O  41.3868  92.0330  110.0930
O  42.8949  96.3925  105.7510
O  53.9958  84.9183  105.4550
O  51.2032  105.1580  47.8692
O  62.8269  120.2290  55.4426
O  55.1796  122.9960  52.0315
O  48.0005  117.3410  48.8253
O  58.8847  108.3840  48.5456
O  41.4018  113.3870  51.6567
O  50.5180  103.4440  44.4830
O  51.5095  116.6930  54.6852
O  60.3089  119.5160  55.9319
O  41.2116  118.5990  59.1673
O  52.8419  108.1680  42.4913
O  56.4819  118.5320  43.4550
O  50.4221  107.5320  56.1354
O  43.9053  122.8410  51.1972
O  47.6544  103.4640  40.6339
O  45.4948  114.1020  69.5030
O  54.7663  112.7700  69.6056
O  52.0167  106.2590  66.2474
O  45.0974  122.8030  73.8444
O  39.8611  104.7630  77.6390
O  60.5918  105.0150  68.9895
O  63.7929  107.4870  75.2869
O  58.8867  105.8410  77.6432
O  56.8097  112.2640  64.4159
O  56.8514  110.6580  70.1131
O  54.5748  113.2280  72.5453
O  50.0615  106.7510  77.2602
O  66.7247  103.9430  79.6105
O  52.0433  123.2940  71.1287
O  64.4756  104.3040  68.6584
O  58.9201  108.3150  76.5288
O  39.1408  116.0170  60.6847
O  48.4723  107.0750  75.0750
O  41.2423  115.3150  78.0294
O  60.7632  117.9060  72.8499
O  61.9614  107.4400  72.8364
O  59.0452  115.1690  68.6054
O  59.0144  118.0650  77.4995
O  46.5606  120.8660  77.1633
O  43.0368  117.9270  74.6668
O  63.5761  122.5800  73.6400
O  61.2377  102.9880  70.5894
O  51.1857  113.2070  90.7218
O  54.8175  106.1620  98.7189
O  48.6219  104.1430  100.8980
O  60.3397  104.1840  82.8144
O  39.1141  123.6060  101.4800
O  54.9156  122.4060  81.7113
O  41.5660  117.9900  91.7996
O  51.7681  117.6590  86.0873
O  44.3058  115.3080  99.1337
O  41.6227  111.4520  88.0369
O  56.2540  122.4920  101.2400
O  45.4357  107.7430  82.2093
O  54.5732  105.2410  95.2508
O  47.3383  110.4680  101.2660
O  45.5906  120.5170  95.5765
O  62.0663  119.7130  83.9569
O  48.9083  114.3250  97.5912
O  51.1429  105.8700  89.2918
O  41.8469  104.6590  99.1612
O  40.7411  107.0600  99.3810
O  66.1407  106.2820  90.6461
O  67.0534  107.3430  82.8050
O  56.0843  119.1120  83.7117
O  50.5218  122.4300  85.5908
O  58.5773  115.0370  85.4541
O  59.9062  119.9570  94.5674
O  60.0242  123.4970  82.2967
O  57.5086  119.5740  85.9796
O  63.5794  118.7790  117.7440
O  55.0458  117.0400  121.2960
O  48.7053  119.7470  123.0460
O  51.1086  122.7460  115.9680
O  62.0780  108.4100  104.0270
O  62.4273  108.5820  107.5710
O  52.4175  107.8850  114.6380
O  46.8201  113.7580  119.1950
O  51.6290  115.1460  122.3570
O  40.4094  104.6870  103.9780
O  55.0866  122.5960  120.2600
O  71.2064  52.0590  38.9956
O  75.8930  46.9261  52.2806
O  78.4147  47.1167  55.6230
O  78.6018  40.1342  52.1662
O  70.7074  48.4884  46.4529
O  77.9326  52.0975  43.2211
O  92.3388  59.7350  44.1095
O  77.1768  43.5537  46.5108
O  91.0382  41.3373  58.3323
O  90.9253  40.2150  56.0058
O  75.0610  40.7271  45.7799
O  94.5703  45.1362  53.8964
O  82.5506  41.5294  54.3111
O  73.0980  58.9012  45.2699
O  71.0466  58.9834  39.0362
O  79.1045  52.0727  51.1532
O  73.8853  49.7008  59.5123
O  81.3672  48.9743  58.0842
O  78.3324  56.3973  54.6726
O  76.2015  48.2994  54.7473
O  73.5092  41.5930  55.9137
O  70.2466  57.4024  47.4613
O  88.9804  47.7406  46.8809
O  84.9641  58.8843  59.9365
O  73.8876  41.3664  76.3157
O  76.8436  50.5886  79.5319
O  83.2574  59.8751  64.1445
O  85.3644  41.6178  74.0389
O  77.7767  44.2066  67.7323
O  86.6043  42.3699  76.2043
O  86.6744  47.4677  80.6868
O  80.3082  56.6643  76.2806
O  92.7912  42.7701  63.1117
O  74.6890  57.5678  70.3785
O  75.3962  52.5747  63.0056
O  80.5734  55.8119  70.9623
O  77.9924  50.7175  83.0747
O  87.8016  53.7617  94.6610
O  87.9046  45.2743  93.8461
O  78.2801  51.5728  90.9628
O  68.9229  49.4527  87.7523
O  80.3758  52.0355  94.5104
O  68.8925  55.8341  102.4880
O  85.5897  52.9002  82.7811
O  79.9539  49.8989  98.9755
O  74.7937  56.0548  89.1874
O  74.9625  57.8650  102.2370
O  72.0550  54.4339  98.0158
O  75.9491  45.1720  101.5080
O  81.0594  46.6971  89.8544
O  71.6931  50.2393  83.6259
O  92.0672  59.5339  87.3145
O  89.0548  47.2707  96.2621
O  82.3975  57.6716  100.7960
O  91.1784  45.4340  86.7143
O  88.9824  44.5062  88.0411
O  87.5564  59.6431  101.5740
O  93.9953  55.3198  93.1207
O  72.7782  52.0412  88.8561
O  69.1403  55.3747  122.6030
O  83.3329  57.4851  110.2590
O  94.3549  52.2061  112.9240
O  69.8839  47.7927  107.6020
O  69.7963  53.4295  106.2530
O  91.5119  47.6208  104.1940
O  85.6488  59.2264  113.9460
O  84.3728  57.3457  103.1740
O  87.8730  51.7028  103.3570
O  79.7006  60.1064  104.2780
O  69.1762  53.0603  121.2310
O  78.3401  53.9841  120.1920
O  80.2247  40.2467  121.7820
O  74.8311  57.2869  106.1260
O  78.1334  40.4411  109.8160
O  73.8182  54.3472  108.5820
O  70.8979  57.0933  103.9450
O  79.0708  51.6078  107.0150
O  93.0390  56.7182  122.4810
O  72.5740  46.7988  107.4340
O  79.3195  49.9468  117.2200
O  90.8402  56.9293  116.9760
O  88.2086  58.3940  108.8340
O  75.2134  58.2511  121.0170
O  76.3848  60.0738  117.6510
O  74.7351  56.9820  123.6720
O  88.9005  64.3998  46.9939
O  81.8474  76.2610  41.1387
O  85.1478  76.0943  41.8601
O  92.5878  70.0144  51.8792
O  70.3928  69.1984  51.5906
O  71.6094  61.7077  39.4668
O  88.9377  63.2329  52.3689
O  78.9544  60.8052  55.1704
O  87.7600  75.7983  58.3832
O  88.4483  79.7038  53.0722
O  77.7620  71.7417  54.4690
O  85.4551  71.4107  45.9909
O  73.7783  65.0725  54.7949
O  73.5016  75.2723  51.9035
O  85.5092  79.1087  39.7904
O  74.9371  78.8840  49.1162
O  84.4352  72.4579  57.7126
O  89.5277  73.8695  43.6400
O  81.9396  78.2345  44.4897
O  86.1287  79.9668  44.5479
O  78.9177  76.8749  58.1017
O  91.8223  65.6578  47.3066
O  69.8932  65.7308  58.4583
O  78.6556  61.4907  48.3388
O  92.5459  65.7401  56.2469
O  71.7281  64.8970  52.7571
O  94.9151  75.3395  48.9273
O  90.4544  62.5306  55.3474
O  73.7193  79.5342  64.8213
O  76.1258  68.0406  76.2980
O  73.6360  63.8063  74.3767
O  87.4296  66.1232  72.7109
O  93.0406  63.3596  62.4567
O  82.1754  71.5301  78.8835
O  78.0667  74.6420  77.3573
O  70.1461  74.3333  79.8140
O  83.8058  61.7459  71.0918
O  91.8704  68.5682  68.3968
O  82.8244  73.3777  80.7063
O  73.4992  81.1102  77.6372
O  88.4985  78.5238  86.8716
O  80.5658  65.4690  88.5731
O  74.9136  67.2920  97.1053
O  93.9407  68.7150  86.9043
O  84.7874  73.0730  84.8590
O  90.6558  65.8805  99.6316
O  80.6448  74.8449  99.2857
O  87.8584  73.9169  89.3205
O  92.3094  69.9836  89.0371
O  94.1634  65.4936  99.8312
O  82.1358  75.3755  101.3860
O  73.3517  65.5088  92.7744
O  69.6705  79.3552  82.3929
O  76.9565  67.3019  119.3150
O  67.8258  73.4606  105.3490
O  67.6974  64.2059  120.8880
O  68.8017  64.6489  117.5570
O  69.4830  74.5821  107.4640
O  80.8126  80.3727  120.5730
O  70.9734  62.9263  117.4680
O  83.5501  80.1979  117.4880
O  79.8248  69.0998  123.3330
O  74.1966  67.2518  116.4430
O  89.2888  61.6649  122.5180
O  72.0157  68.6407  117.1510
O  91.0231  63.9956  104.7220
O  83.5869  78.4497  120.2560
O  76.6273  63.5652  120.3900
O  94.4823  72.7967  121.9830
O  75.1911  80.2213  112.5190
O  94.4147  98.0833  57.5600
O  78.3576  84.4709  42.2183
O  80.7600  88.7729  39.0301
O  85.3427  94.4435  48.0988
O  95.5075  100.7980  46.0684
O  76.6025  97.4740  57.9260
O  74.5630  101.6620  50.0089
O  74.7801  91.0952  38.9980
O  69.4633  99.3715  57.0961
O  80.8155  82.1874  49.3153
O  81.4049  93.1511  56.2054
O  92.4414  86.2260  51.2264
O  82.5386  81.6613  44.9730
O  76.7021  97.8636  44.7421
O  74.6171  96.0519  52.8280
O  72.7415  90.7020  75.8131
O  78.7972  94.3989  64.4495
O  72.5347  102.7670  65.7274
O  81.6406  95.1086  77.4826
O  86.9619  98.0947  71.2924
O  91.6307  96.9067  74.6265
O  82.2212  98.7069  77.8979
O  84.0875  99.6092  72.0234
O  87.0980  100.8360  74.2011
O  72.5618  92.9746  80.3315
O  76.7083  101.3690  67.1123
O  78.2955  84.9111  79.2628
O  94.5966  99.5597  81.3578
O  78.6958  92.4142  90.1697
O  77.0774  85.8008  82.9708
O  69.5156  86.3873  84.3515
O  93.2182  98.2190  83.2925
O  68.0497  100.7820  87.6037
O  94.6232  101.6350  86.8865
O  93.0877  95.7689  86.5707
O  82.9441  88.1590  97.4853
O  68.7569  90.4162  96.6916
O  70.6398  83.2760  84.8205
O  82.5090  83.7409  115.5820
O  94.0330  100.2250  106.9670
O  71.9789  101.1370  103.7380
O  70.9089  97.3202  107.1720
O  70.0389  91.1207  113.0710
O  69.7618  96.4085  109.5430
O  73.6446  84.3764  108.3370
O  88.3505  98.0932  112.0660
O  78.3872  88.1841  113.2190
O  73.1840  98.6419  118.4640
O  82.4212  83.4328  110.8900
O  91.0298  95.5511  110.8560
O  76.6725  81.6609  114.2880
O  80.3448  87.3412  117.7440
O  94.8411  96.5937  115.7720
O  79.2101  108.6330  54.8718
O  85.8267  111.0050  40.2973
O  82.3952  122.7970  54.1356
O  83.3338  118.3990  57.3346
O  94.2039  111.8890  39.2353
O  86.2187  109.6930  44.9131
O  90.4672  108.1410  48.2645
O  86.6699  120.1020  56.7587
O  89.7625  107.7950  43.5753
O  70.6629  122.1320  47.2514
O  91.2472  119.9480  59.5296
O  87.3047  123.4660  56.2872
O  81.9068  105.7450  78.6572
O  93.6629  119.9940  60.7903
O  69.0393  105.2740  61.2271
O  82.5649  111.6890  74.9413
O  87.8795  122.5150  71.3011
O  75.6578  105.9560  65.6815
O  95.2441  106.8360  68.9995
O  89.6562  112.8180  72.1742
O  93.1018  106.0810  61.8310
O  92.1697  115.8100  72.9264
O  87.1508  120.7860  61.6009
O  69.9361  103.5480  68.4480
O  86.3327  105.1060  74.4943
O  93.9467  108.4290  71.4908
O  83.9112  103.6610  66.3194
O  85.2403  107.5600  70.1895
O  85.7359  108.6020  81.3798
O  72.2638  123.9710  101.8830
O  95.4948  119.4140  85.4245
O  91.0583  113.6610  89.6122
O  82.6339  104.3620  100.6110
O  83.5394  117.7140  100.4460
O  67.5967  118.9190  84.0587
O  93.3418  121.3080  96.3872
O  93.7426  112.7980  97.3959
O  91.3164  117.2450  83.5933
O  90.6924  121.2780  95.7535
O  91.7168  119.7170  97.8225
O  77.6216  112.4190  110.5650
O  74.6020  115.3830  110.5820
O  69.5344  118.9110  108.3400
O  73.4357  117.1320  108.8620
O  81.8604  119.9190  108.5870
O  77.9881  114.0110  106.9020
O  87.7179  111.6470  123.6420
O  83.5842  110.5500  108.8970
O  75.1329  123.0130  120.7950
O  85.3124  110.9940  116.9340
O  76.1474  122.4410  115.1450
O  84.1278  120.9580  104.5100
O  68.9684  109.8220  108.2600
O  85.8831  118.5490  105.5680
O  83.1670  121.4840  123.6280
O  93.4771  111.6410  114.5360
O  72.6948  105.1940  103.3860
O  95.4924  109.6620  107.2640
O  73.5980  116.4750  118.7690
O  95.2563  114.2120  110.6060
O  96.9695  52.4474  48.2690
O  108.4370  56.8502  49.9321
O  123.0830  46.5390  54.1414
O  119.8170  51.8622  57.3809
O  117.1090  54.0550  44.8830
O  102.2380  58.4042  53.8270
O  115.7740  41.9405  57.6767
O  121.7720  46.6072  58.9115
O  113.5400  58.1243  51.4399
O  115.8810  42.2977  66.9903
O  113.1730  47.4805  65.5063
O  114.3260  44.3216  61.3011
O  100.8800  51.1730  60.4022
O  106.4150  45.5086  62.7131
O  106.2770  59.3775  61.6034
O  106.3980  59.6766  65.3159
O  121.2320  56.0989  69.1027
O  119.8080  57.6574  63.8335
O  118.6630  54.6547  70.4078
O  109.7480  54.5959  67.3573
O  109.5800  57.3976  72.2762
O  123.1200  55.7069  60.9069
O  110.1910  39.7424  64.9216
O  99.7276  50.7589  96.3918
O  105.5780  46.1795  93.9185
O  118.6260  60.1939  85.5292
O  101.3520  39.1037  93.7423
O  104.6240  46.5448  102.3860
O  99.4102  44.8312  106.0340
O  109.3020  47.9299  109.9030
O  103.0670  56.1397  114.8220
O  114.0450  39.1458  108.2120
O  112.0180  59.9022  112.0970
O  107.2660  46.3268  109.2320
O  104.2870  45.6479  112.6850
O  104.4340  43.5378  107.8820
O  98.1816  52.6665  109.2930
O  102.3430  45.9283  106.6460
O  104.8500  58.5802  111.7890
O  96.6278  55.7622  103.0180
O  109.0430  43.4424  113.9450
O  112.7500  57.4321  122.8720
O  103.4740  44.9732  115.1570
O  118.3170  43.0003  102.7950
O  104.2540  67.7885  59.9267
O  115.0310  76.1939  57.1261
O  118.3720  79.1523  55.3081
O  117.8910  76.4382  55.7082
O  112.2960  76.7580  51.7531
O  101.6100  71.8421  54.5487
O  114.6580  61.0556  57.5469
O  106.2730  70.9417  52.4804
O  119.1910  68.3863  57.3125
O  103.2950  71.2395  45.0847
O  100.7740  64.6366  45.0337
O  98.6532  73.3800  41.8919
O  97.8650  60.9823  45.7619
O  110.3330  77.6124  59.7483
O  111.1010  79.7493  38.9266
O  102.7770  61.9135  68.4925
O  97.9829  67.0314  71.4226
O  97.9459  68.3637  68.4396
O  103.9170  81.1269  69.7249
O  104.2310  79.4066  77.6124
O  108.2460  64.1050  64.7550
O  115.1100  67.6463  64.9218
O  113.3700  71.9635  75.0120
O  99.8141  71.5623  77.7031
O  113.0150  78.8569  68.0444
O  108.6330  69.7821  93.9555
O  107.3210  68.4834  100.6780
O  123.7890  81.1794  99.3003
O  100.8280  81.4090  83.7833
O  99.5053  78.3205  95.3569
O  112.7250  73.4992  91.2032
O  112.7860  78.2851  96.2914
O  115.1120  75.0476  91.2811
O  110.6540  76.6602  91.4651
O  106.7320  62.3830  96.2507
O  120.9580  81.2049  91.1414
O  96.4965  60.5604  120.4440
O  113.0940  63.5433  107.4150
O  101.1700  64.6117  107.1920
O  102.8610  63.3993  114.5330
O  111.4990  68.4768  103.6130
O  105.6520  74.4399  114.4580
O  121.9790  76.0834  107.5790
O  103.7140  69.2000  113.8250
O  101.8670  73.6328  118.3680
O  120.2410  77.3271  119.7130
O  113.0590  64.0431  104.7070
O  117.4510  65.5312  104.8200
O  114.2590  73.4222  107.2120
O  117.8800  74.1282  113.2930
O  112.6990  69.3369  122.0700
O  98.0795  70.3148  113.8040
O  98.8259  77.8915  108.7460
O  105.9350  61.0529  111.2190
O  122.0780  69.4732  103.2390
O  103.2490  81.2014  119.8260
O  104.4210  65.2700  102.9400
O  105.9950  86.0778  44.5490
O  101.3880  88.7512  43.9045
O  107.7450  87.6185  56.4711
O  111.9480  94.5697  43.5066
O  97.5807  83.8445  51.2693
O  119.5430  96.1418  52.5289
O  96.7066  95.1493  52.0554
O  104.1280  101.0020  47.0005
O  121.0470  102.3600  50.1310
O  96.8937  84.2025  46.4338
O  111.0760  84.7463  45.7434
O  120.7330  90.0823  52.2720
O  101.7240  86.1449  59.1112
O  97.2217  102.3260  47.7896
O  100.3620  84.4525  66.5883
O  98.4048  86.6575  70.3783
O  103.0530  95.8157  75.4873
O  108.7700  84.1178  60.2469
O  118.9290  99.8554  78.2798
O  99.5553  87.8230  63.5555
O  100.7110  82.2432  64.2238
O  98.4959  89.2557  66.4186
O  113.6000  89.9857  76.0877
O  106.4110  89.3760  76.5297
O  105.7580  98.5871  68.7208
O  106.9530  102.1730  75.5728
O  99.5457  94.1348  72.0756
O  100.1320  93.5052  76.7941
O  110.4600  95.0882  71.0075
O  103.3530  101.4340  70.2171
O  99.0024  96.8528  80.9613
O  100.9860  99.8653  80.9150
O  106.0640  92.3870  80.6969
O  102.7390  82.7133  88.0061
O  119.3200  87.1513  88.9273
O  113.3170  96.4342  82.6014
O  97.5037  86.4364  85.2572
O  118.0060  86.4580  86.0014
O  122.7450  92.1081  87.2635
O  118.6930  97.5569  98.9376
O  107.0420  85.2223  88.2981
O  99.7202  83.4817  85.0514
O  113.8940  101.3270  85.0388
O  96.5633  91.6140  93.1918
O  122.9900  82.4873  93.6813
O  99.3664  95.6966  114.0570
O  111.7080  81.9333  112.6620
O  111.8640  84.7991  121.2110
O  108.1960  82.2170  116.3550
O  123.1180  101.1290  106.2560
O  95.8247  98.9968  122.5360
O  114.7500  88.1201  108.6410
O  102.7040  84.0887  103.5600
O  115.0680  86.0952  103.1510
O  110.1170  83.6852  111.3210
O  98.9427  84.4806  116.2870
O  118.5900  122.7040  39.9456
O  111.5160  122.6250  47.9928
O  119.6930  121.2780  56.2996
O  102.3740  112.0780  42.6489
O  115.3550  112.8510  39.1553
O  121.0310  106.8440  56.3766
O  123.2550  123.9260  58.3980
O  118.5660  119.9340  59.2134
O  121.2660  122.6810  39.9417
O  123.2520  111.3000  52.3276
O  101.1610  103.1340  49.6871
O  97.6951  104.7620  48.6696
O  115.7500  112.9250  46.4570
O  96.1404  108.4170  39.1487
O  97.0824  115.6240  63.5230
O  117.6560  114.8070  66.1499
O  123.4990  118.0390  74.1131
O  115.6970  119.4240  72.0999
O  115.0090  118.9170  75.2331
O  102.9660  113.4050  79.3134
O  97.7253  106.9920  60.2996
O  100.1960  123.0730  68.7581
O  122.8460  112.1620  63.0837
O  103.0300  122.5930  62.5179
O  96.1315  116.9750  66.8943
O  121.4820  124.2620  62.7408
O  111.7430  114.1040  86.5383
O  115.3350  115.1660  81.8599
O  108.0450  121.5020  87.8949
O  96.9185  106.3310  99.3025
O  105.5950  122.1580  86.9266
O  105.8730  119.4790  100.6790
O  112.7540  124.0480  86.3285
O  101.2200  122.8030  84.6886
O  98.1011  111.3070  100.5460
O  97.1914  117.3770  100.9800
O  97.1106  116.6170  114.8380
O  100.2650  109.8040  103.1750
O  121.5390  103.2580  103.1030
O  99.6369  108.0910  109.7760
O  113.4820  122.4510  106.4260
O  106.3900  105.5120  110.7280
O  109.7750  115.6720  121.3000
O  97.4688  113.8700  109.0750
O  123.7500  109.5070  117.2600
O  114.7170  116.5960  122.9150
