638
Terminal OH atoms
O  52.7312  36.1154  42.3276
O  47.5354  34.3802  47.8130
O  53.0241  38.3414  47.2802
O  34.6379  35.1584  42.1640
O  37.7609  47.7228  41.6006
O  52.9191  42.7483  41.4245
O  48.2508  42.9626  38.9088
O  43.5600  45.8485  39.8508
O  46.0057  36.5154  47.2043
O  40.1557  49.2915  44.3454
O  43.9304  34.9401  47.7084
O  54.3025  43.2326  35.7797
O  42.7170  47.8102  44.0607
O  50.7788  42.4111  36.9521
O  39.9666  44.9813  35.5081
O  42.5052  43.8307  45.1694
O  48.3675  50.2240  37.0313
O  57.8758  41.1605  48.3406
O  54.2611  35.4819  48.2525
O  47.4586  52.6494  39.3487
O  40.7121  50.8049  66.1872
O  35.1611  38.8606  68.8080
O  40.9855  39.0804  70.6559
O  37.9433  49.4514  59.8444
O  56.2909  48.0642  68.2940
O  52.8700  40.8851  67.6074
O  42.6234  38.5910  61.6488
O  42.2240  36.7629  55.0053
O  42.6088  45.3961  57.0483
O  39.9630  35.3706  52.9428
O  37.0108  49.2434  70.9850
O  34.4480  37.6180  85.7865
O  51.7878  35.6122  81.8203
O  41.2790  35.1587  84.5077
O  55.3060  38.2486  80.3390
O  51.9605  41.1507  71.7505
O  44.6598  34.5465  78.0736
O  35.8585  36.3262  79.4825
O  42.8889  52.7180  74.7230
O  47.1742  51.4395  106.7470
O  46.0534  40.8380  96.4052
O  46.0584  42.2987  107.5510
O  36.6884  48.6380  92.6933
O  47.1783  52.0054  95.8578
O  51.5801  50.1917  101.6640
O  54.7511  42.4262  102.6570
O  46.0436  37.7157  99.1622
O  39.2702  34.6238  104.3390
O  54.1675  43.6989  96.9649
O  52.1952  51.1922  95.3459
O  37.1384  35.0183  94.1358
O  49.8766  46.1035  93.8119
O  38.6081  40.5617  94.5833
O  39.9260  51.5238  99.6723
O  57.9352  34.4200  89.3441
O  43.3475  40.6680  89.8027
O  35.8801  66.2384  44.6046
O  53.5367  60.3728  47.7998
O  49.2827  69.5622  45.4335
O  38.1734  62.2434  42.2020
O  52.1332  61.6922  38.0767
O  45.8660  67.8718  52.4893
O  39.3972  59.2267  47.2558
O  46.9106  59.0420  44.8714
O  41.6299  58.4335  42.1525
O  51.1631  62.2654  48.4516
O  45.8674  52.8004  49.9964
O  40.1705  63.9134  51.7563
O  57.8217  64.4535  52.4526
O  40.0213  69.1240  54.6108
O  39.3646  56.8089  65.4234
O  54.5976  70.6074  61.0825
O  47.3478  66.1787  70.2858
O  34.4234  61.9955  56.0835
O  39.6492  60.8067  61.5249
O  52.4180  64.6633  53.9711
O  54.9502  58.0632  63.9120
O  39.8410  70.1160  57.3079
O  39.7649  56.8635  68.1423
O  54.6261  61.5274  56.9914
O  56.9018  68.6982  62.7093
O  49.3756  59.9564  66.7205
O  53.4305  68.4878  64.5684
O  43.7438  69.7118  69.9639
O  36.9082  63.7908  81.0995
O  45.8913  60.3083  71.4873
O  46.7842  57.4253  87.2783
O  42.2698  54.5000  72.7908
O  43.5658  59.7547  84.5729
O  45.2318  55.7128  77.4812
O  54.1852  58.0856  74.6975
O  47.2570  62.5777  81.7289
O  35.4641  66.6120  79.1200
O  50.9055  56.6372  81.9548
O  52.2020  66.8155  85.9629
O  58.6699  61.0859  78.3804
O  34.7957  70.6436  80.5915
O  39.8745  58.0183  96.6206
O  42.8437  59.8503  91.9979
O  54.5501  62.8537  103.7320
O  43.5781  55.6742  99.5133
O  50.9956  67.4787  99.6414
O  45.2593  63.5328  90.6431
O  45.3944  63.3895  101.1540
O  43.4471  52.6640  102.7230
O  48.1204  57.4355  107.6490
O  35.5727  54.9841  102.9510
O  46.5985  58.1143  93.7040
O  44.5676  62.1618  93.5181
O  46.1214  67.1357  107.5630
O  35.9863  83.3226  41.7170
O  43.2049  78.7856  41.3661
O  44.2509  86.3618  49.2457
O  58.5718  80.5912  47.0773
O  38.8172  86.4797  40.8522
O  36.4686  72.2988  48.2568
O  58.2103  86.3319  52.4251
O  37.9090  74.4909  40.4260
O  51.1278  83.3017  49.5946
O  38.8591  80.5081  52.0948
O  43.4262  88.9090  46.8336
O  36.7215  89.0343  51.7854
O  49.3011  88.6513  67.8432
O  37.5505  83.9092  58.3042
O  38.5571  79.1135  64.2965
O  43.5331  83.9197  54.7702
O  40.2897  83.2904  62.6219
O  55.8768  88.6132  56.3388
O  56.1603  80.1877  64.5992
O  46.8729  80.0917  54.7287
O  46.9372  88.4556  56.8953
O  44.0600  78.3451  55.7148
O  50.8392  81.1509  69.5288
O  52.1964  85.1708  57.9312
O  52.2115  87.2935  62.6441
O  47.8534  82.1619  64.1165
O  46.2934  85.6178  53.6186
O  48.7189  78.4269  64.3218
O  35.1895  80.6139  56.4964
O  35.8274  78.8407  68.1188
O  39.4898  85.4196  53.1498
O  54.3629  88.8304  61.8505
O  36.6930  71.7204  69.3731
O  58.7678  73.7581  70.7929
O  48.2812  87.8021  70.5805
O  48.2721  79.3986  71.4073
O  37.8958  79.7159  72.9009
O  40.4009  79.3621  73.6891
O  54.0603  87.8855  74.4579
O  38.7045  75.8285  84.8200
O  58.8311  79.0248  76.3583
O  36.1061  73.5748  84.7958
O  51.0720  71.9882  71.8682
O  40.0433  86.8599  88.7439
O  39.0351  87.0051  78.8872
O  41.9850  83.5688  78.5725
O  52.6857  85.1572  104.2240
O  49.8704  89.2303  95.7816
O  51.9358  81.3685  91.9274
O  47.2906  87.2005  105.2940
O  52.8516  82.8648  105.6630
O  37.6491  81.5436  95.7877
O  57.7494  73.6568  107.1390
O  51.5590  79.4361  99.1371
O  38.6770  78.7575  104.7050
O  46.4130  84.9421  100.5410
O  45.3293  85.3326  104.9770
O  40.7013  86.8242  106.7170
O  34.9947  86.5996  102.0450
O  47.3928  88.2050  94.8604
O  40.5918  75.0813  105.5900
O  48.9200  86.2606  91.2136
O  35.5402  79.3770  105.9350
O  50.8016  103.7270  47.7775
O  46.5063  100.8410  34.9593
O  49.7522  105.6170  43.8691
O  38.9647  99.2469  45.2114
O  56.5710  106.8030  42.5451
O  53.4920  101.7550  40.3084
O  56.6511  104.7160  37.2808
O  51.3033  92.6567  36.6328
O  39.8194  101.7750  37.8318
O  49.5866  97.5943  48.0940
O  46.7488  90.0681  38.5668
O  40.5399  94.8246  34.7325
O  35.4448  90.6134  59.3799
O  41.4443  90.2586  58.7530
O  50.7016  103.4370  57.1613
O  44.6383  98.4468  60.3278
O  57.7044  90.2582  66.6824
O  44.8947  96.4278  52.9951
O  43.2389  103.2910  57.8012
O  54.6039  102.2410  53.0940
O  51.8008  89.8319  61.6480
O  42.0436  99.5767  56.5197
O  42.9368  106.3850  83.7484
O  45.0496  104.4910  73.8789
O  46.3851  92.5489  73.1544
O  42.3802  95.2148  82.5489
O  51.6263  107.3880  88.2887
O  44.5928  93.2765  76.9750
O  55.0949  91.9880  81.5197
O  50.7635  102.1640  87.4842
O  46.4134  101.3920  83.8817
O  56.6490  102.5660  84.2123
O  52.6531  89.4277  81.1715
O  57.7883  101.7500  86.8815
O  40.9259  92.0413  82.1889
O  55.2323  94.5678  81.1844
O  44.4304  107.2020  75.4836
O  36.8428  95.9164  96.4689
O  58.3000  98.1155  96.2901
O  55.2700  93.2926  106.1260
O  37.7866  90.6517  94.2622
O  46.2593  96.6277  101.9170
O  57.8104  90.6547  91.1888
O  35.1499  90.6064  95.0066
O  48.2172  101.8200  96.7450
O  55.3639  100.5120  104.1760
O  54.1917  102.9270  104.4330
O  49.0782  97.4062  93.8693
O  50.4709  100.8200  102.2490
O  42.8765  100.8650  94.1920
O  49.2966  106.1870  104.9940
O  40.9538  104.8020  93.3657
O  58.0195  93.0128  93.9917
O  45.6560  107.2350  107.2820
O  74.2495  34.4590  47.4415
O  82.7340  39.7224  39.4872
O  66.0806  48.3796  39.7571
O  71.8358  51.6642  51.6674
O  80.3984  35.2656  41.2432
O  70.6027  36.1484  45.8408
O  60.4355  39.8066  46.7129
O  70.0352  50.2934  40.9284
O  70.3948  51.7310  35.7272
O  63.3180  35.7414  68.3633
O  64.9585  34.3979  59.7603
O  62.4950  43.1873  65.2013
O  74.2525  41.0618  65.4073
O  70.8214  38.3977  58.7000
O  78.4930  41.2620  55.0257
O  60.9911  39.3970  55.1033
O  81.8730  41.3901  63.6627
O  78.3809  49.9386  52.9390
O  75.5640  45.0672  62.0226
O  79.1589  37.8135  61.6227
O  79.3629  38.0352  53.5597
O  76.2562  48.5540  81.6672
O  66.3293  41.3942  85.1078
O  75.5781  44.9313  74.3130
O  66.4086  37.7865  77.7077
O  72.6276  41.6454  87.7748
O  76.5619  50.5029  72.1686
O  75.9349  51.9611  87.3169
O  73.0513  45.9204  74.7921
O  74.8588  51.2834  89.6907
O  62.4109  36.0007  98.8466
O  72.4506  38.5754  102.4090
O  68.4849  36.2970  94.6209
O  62.7630  38.6355  99.5230
O  78.9507  38.9174  90.3331
O  79.4221  44.2874  100.0260
O  71.5693  42.1323  98.5774
O  78.0537  40.3524  94.0642
O  79.6899  34.9598  107.6180
O  73.3280  57.9667  42.2784
O  80.0880  54.0827  40.9427
O  67.0399  53.5790  35.5676
O  69.1389  61.7148  37.2387
O  65.9480  68.8066  46.4308
O  64.9939  63.7390  44.5927
O  81.1394  54.4321  44.5444
O  74.9568  55.8914  43.5555
O  67.0031  58.4418  36.7305
O  81.1884  65.4356  49.9214
O  82.6937  67.7516  37.8896
O  74.9739  66.2476  51.2610
O  74.7111  54.0448  51.1162
O  67.9724  66.1815  50.8526
O  60.8911  62.8597  52.3971
O  70.8038  67.1308  53.5079
O  60.5225  63.6772  58.6285
O  78.4367  60.6020  61.9992
O  70.3319  60.3409  60.6625
O  82.7759  60.4198  67.2046
O  70.3326  61.2870  53.7744
O  76.2543  58.0082  64.1458
O  79.6935  62.1307  54.6645
O  80.9103  63.5103  57.4749
O  77.7591  58.5460  69.7466
O  72.6419  65.3023  52.6813
O  63.2917  62.3376  79.8511
O  80.6622  54.4746  86.1996
O  70.3343  59.6476  75.5910
O  68.1219  56.7149  72.5188
O  76.8015  53.5640  71.2694
O  79.9822  67.3500  88.7792
O  82.8145  68.1731  85.9501
O  74.0839  53.4903  88.4966
O  83.0003  58.9077  81.3732
O  60.7140  68.3149  106.3660
O  71.0137  60.2401  100.8760
O  74.4504  59.7534  90.4583
O  65.6797  55.7459  94.2863
O  70.5987  63.0714  103.0230
O  63.0194  64.0168  103.8330
O  65.0402  65.4482  102.4840
O  80.9837  63.6126  97.6316
O  67.6992  56.4476  95.9296
O  78.4216  64.9051  97.0681
O  60.0889  80.7138  44.7104
O  76.7008  74.3115  40.5607
O  71.8786  75.7994  51.1139
O  77.2291  74.2147  43.7237
O  60.4962  82.1123  37.4120
O  72.1829  73.2848  51.8028
O  78.9230  81.8012  37.1603
O  81.6066  79.4113  41.5374
O  67.8077  71.8590  43.2421
O  69.9325  78.3297  46.3689
O  81.5377  77.3519  46.2033
O  61.7207  75.9937  44.7567
O  75.2828  80.0704  39.4506
O  75.4784  85.9504  42.4346
O  63.4847  72.8192  52.1853
O  64.7243  71.2260  46.3897
O  71.1278  71.5839  48.9676
O  71.3992  73.2741  55.2776
O  68.3606  86.0015  52.9502
O  61.7525  71.9101  54.0974
O  65.5006  72.1350  59.0639
O  60.8684  79.0450  62.0817
O  79.4942  76.6576  62.8804
O  83.0332  85.6915  64.5457
O  71.6682  74.1641  60.9394
O  81.5687  81.8579  52.7579
O  73.5758  78.8842  65.7833
O  69.4028  75.4536  61.0151
O  62.7038  77.2004  70.9697
O  66.4501  80.7577  82.3798
O  72.3777  72.3934  74.8203
O  63.6753  87.1300  82.6459
O  65.0126  74.8333  79.8821
O  81.2336  73.2923  76.9227
O  78.6339  73.4127  76.4714
O  64.7188  83.3762  71.5247
O  60.8800  85.2010  84.7423
O  78.1940  75.3058  83.6718
O  66.1246  78.5990  87.8209
O  68.0961  88.9662  75.1398
O  82.6334  88.5118  74.4216
O  65.5861  82.9672  93.7284
O  71.0160  71.5579  99.7136
O  75.3542  80.4611  89.3360
O  80.0682  72.3289  101.9090
O  68.1933  79.2672  105.3330
O  69.1106  78.1029  94.0621
O  76.9309  85.3647  100.6350
O  60.3334  82.6109  95.9726
O  77.7022  83.6567  96.7384
O  80.6402  78.4156  106.9930
O  67.7536  83.8623  95.1573
O  69.4541  78.1535  101.3170
O  80.1991  81.3936  103.1600
O  73.5308  85.6480  102.1920
O  62.1623  72.6251  89.6500
O  77.9421  105.2210  41.8612
O  76.7722  95.0812  35.4982
O  77.5133  104.1760  38.3981
O  75.5292  90.5067  37.6507
O  73.5079  100.9470  44.9732
O  70.4960  100.5370  37.3202
O  78.2786  106.1580  50.4180
O  62.9477  105.6380  51.7058
O  67.1563  97.5684  41.6145
O  74.1835  102.9470  40.7106
O  73.8562  105.9840  50.2017
O  75.5024  100.5880  46.6639
O  82.2734  102.1340  38.4323
O  65.6983  101.7100  52.0240
O  77.1899  90.3758  52.5997
O  80.1713  98.1279  61.8689
O  80.5032  107.3030  59.7423
O  60.0942  104.1150  65.5463
O  62.2242  95.1753  66.6219
O  79.3751  90.9662  61.4823
O  79.7353  89.7143  64.2921
O  66.2776  92.4347  62.8755
O  67.2166  102.4790  68.0299
O  67.3174  94.8558  67.4157
O  69.0976  91.9989  88.0516
O  65.5530  94.4658  72.5468
O  64.4492  99.0327  76.4499
O  59.4535  90.6921  78.8212
O  68.5459  95.8937  81.4326
O  72.7329  95.9078  78.1606
O  73.0612  98.3205  73.5196
O  61.9955  106.6970  83.0011
O  80.0856  102.3590  84.4131
O  74.9964  90.6486  75.8638
O  63.6367  105.3350  71.4030
O  68.5763  106.5770  100.6340
O  76.4382  90.4460  101.4330
O  68.4070  94.4163  98.8545
O  62.3055  94.6261  100.6680
O  73.9018  98.6479  90.2857
O  100.3190  48.7818  36.1986
O  89.3481  40.0309  44.1390
O  103.5950  43.2895  42.8552
O  85.8482  36.5718  50.3306
O  84.4024  45.2511  36.1241
O  102.6540  41.8458  37.2418
O  103.7070  42.1800  39.7220
O  94.7599  45.6864  37.0991
O  107.4820  47.1076  34.7910
O  86.3350  51.1161  35.7000
O  83.7589  34.3521  34.4248
O  84.8141  35.1933  64.8831
O  106.2570  41.5992  61.1251
O  83.8769  46.4574  59.4475
O  96.3460  49.3543  65.3055
O  92.6875  37.2803  67.0172
O  101.4360  44.2975  65.2200
O  103.6490  44.4395  66.7265
O  90.2056  37.9730  55.1726
O  103.7000  45.3192  59.5944
O  86.4660  42.1566  70.6824
O  88.5384  37.8025  84.4442
O  102.5650  38.9958  79.1593
O  89.3958  39.0536  75.3097
O  95.9261  40.2270  81.3033
O  96.9724  47.7683  88.6801
O  84.5487  41.0901  73.9195
O  98.5674  43.1355  87.5782
O  97.8186  43.1832  84.3404
O  97.2775  42.5032  77.6277
O  95.3092  44.5840  76.7784
O  100.3990  43.8691  81.3733
O  101.5920  36.0732  88.2313
O  100.2620  40.4559  74.5516
O  104.0830  36.2344  79.8942
O  105.9420  43.1528  85.6683
O  105.4500  48.5515  78.8187
O  86.2791  38.2158  106.6820
O  102.7250  46.9793  95.8076
O  87.1207  38.8795  102.3210
O  103.7550  39.3880  95.9031
O  85.2664  35.8041  93.5611
O  101.0610  42.7950  96.7332
O  103.2080  44.4114  94.9938
O  100.2390  39.6137  96.0268
O  104.6050  45.7528  98.5855
O  89.8968  50.2032  98.9048
O  83.5456  51.2301  94.5337
O  97.6830  49.8161  97.2666
O  97.3265  38.1150  91.0191
O  90.3182  38.0586  95.0994
O  101.1650  39.3562  106.7320
O  97.5685  47.8071  99.0116
O  86.6687  54.3958  48.2312
O  84.9276  61.7679  45.8009
O  102.5080  56.6835  40.1296
O  92.0235  52.6912  49.4162
O  103.2220  60.5448  49.6444
O  89.2441  57.0667  35.9479
O  85.3115  58.2140  39.3762
O  105.8440  68.2866  41.9936
O  98.4170  68.5738  38.4720
O  88.1661  55.9412  61.1587
O  87.5342  59.0150  53.1769
O  86.3860  64.0440  58.0836
O  98.4512  56.8728  68.9643
O  104.3540  66.7686  60.9998
O  86.0308  54.5916  63.3896
O  86.5219  55.2631  53.8216
O  87.0965  55.0629  68.1561
O  107.5200  57.4105  57.3952
O  88.0597  58.1274  56.0257
O  91.2367  67.0730  66.7294
O  88.3723  57.5223  68.3487
O  95.4437  62.0277  76.7478
O  91.3132  67.6181  86.9834
O  84.2169  59.1987  84.8121
O  93.9579  63.9999  75.6503
O  96.7967  61.2257  87.4938
O  97.9800  68.5820  81.8491
O  99.5065  59.5956  81.4516
O  93.5130  64.5382  89.1638
O  87.0491  70.2822  88.2960
O  83.6219  53.5028  84.3233
O  90.9931  61.9026  72.3231
O  93.4492  64.7789  84.4449
O  94.4091  65.5649  79.3914
O  94.7965  59.2096  82.6367
O  101.3350  59.2340  87.8409
O  103.3750  54.7976  97.0421
O  88.4444  65.3489  106.1520
O  95.8470  53.9286  99.7379
O  99.6936  68.5162  93.3923
O  88.9529  55.9021  92.8477
O  101.6690  54.4699  106.4180
O  103.8200  63.4872  89.8960
O  98.5255  56.5620  95.8541
O  95.6740  68.1470  105.5430
O  91.3117  59.0466  102.5350
O  98.9241  55.0033  100.4870
O  92.3898  67.9925  101.0820
O  83.3275  57.8341  96.6780
O  86.7261  65.5370  98.6349
O  103.9740  54.6088  89.9027
O  98.4461  68.5722  98.0895
O  103.4350  67.4324  95.9878
O  100.8980  57.6629  96.3466
O  105.4900  69.0293  96.7796
O  97.1810  54.6319  106.7410
O  97.7773  88.0829  37.2652
O  97.3387  84.1586  47.3745
O  88.3604  71.8054  46.4087
O  88.9924  86.8388  44.7383
O  99.8315  83.7939  36.2425
O  106.0280  78.7689  46.9854
O  87.5689  82.3667  43.9902
O  92.6762  88.5133  49.2846
O  95.0088  84.7781  42.2362
O  107.1970  84.8941  37.1573
O  96.6719  72.4811  58.6317
O  85.6832  81.3922  56.4452
O  92.7304  72.8142  69.9457
O  102.2040  87.1719  55.7103
O  95.8927  72.6292  54.8434
O  95.9777  74.2894  68.6338
O  99.2716  72.8625  61.8507
O  93.5000  75.4058  68.8118
O  95.9881  76.8531  60.2001
O  95.9434  82.4505  68.6269
O  90.4686  81.2229  71.8906
O  83.3383  78.0105  79.0539
O  94.2474  71.7172  77.1849
O  99.6145  82.8062  81.2414
O  84.9755  79.9122  74.5574
O  99.0652  73.5095  88.1736
O  96.0872  89.1182  87.6461
O  103.2590  79.7062  78.9370
O  90.0383  71.2050  77.4759
O  102.8830  82.6438  76.0239
O  106.2500  83.9830  78.5373
O  100.8520  81.2519  77.0643
O  87.1644  78.8727  86.0838
O  97.3765  84.8183  80.2608
O  101.0760  72.5511  78.3903
O  98.3298  82.2840  77.0812
O  99.0782  83.0413  84.9081
O  92.9544  84.6812  82.0286
O  90.8785  85.9218  88.3843
O  96.3496  82.3632  97.7330
O  104.6500  85.0272  96.0266
O  104.9900  86.3357  107.3120
O  91.6740  72.8076  95.2484
O  95.5760  70.9632  98.3409
O  88.9089  73.3346  89.6839
O  103.6910  72.8300  106.1350
O  96.1203  85.0217  93.3097
O  87.1678  75.7702  104.5650
O  91.4084  83.4028  94.2632
O  91.0755  84.4669  107.3120
O  99.7423  77.2224  103.0950
O  86.2294  84.0301  97.0901
O  107.3810  72.1424  94.7422
O  94.2564  71.6129  95.7987
O  98.8748  81.5206  104.9010
O  106.8430  87.9327  99.2306
O  86.2439  88.1459  92.0756
O  83.3653  80.2411  89.2379
O  102.0100  99.1125  46.8892
O  86.4928  104.7100  49.7318
O  105.6790  102.9260  35.8306
O  96.0739  91.0949  37.9022
O  91.3763  106.6840  40.3205
O  91.5061  99.6295  44.9338
O  86.5178  91.4176  44.0183
O  93.6527  101.9100  39.2229
O  87.3973  91.3277  47.2658
O  91.9034  92.9161  37.6037
O  106.1620  92.6463  50.2687
O  85.0572  91.0480  36.7524
O  106.3950  96.1881  45.0728
O  88.1864  102.7760  54.9126
O  105.9090  100.1570  70.6760
O  99.4706  95.5892  65.0625
O  101.3100  107.2960  55.1694
O  99.7427  93.5904  57.6546
O  96.6895  89.6554  69.2425
O  83.7641  102.1230  63.4516
O  83.9045  99.4051  63.1773
O  90.7689  102.6650  60.1196
O  90.1674  96.6566  60.8336
O  96.0319  97.7910  69.3394
O  91.7664  106.7910  57.2677
O  86.2497  92.8006  74.4757
O  92.0888  100.6240  86.5913
O  102.2220  100.6450  78.3943
O  100.4360  107.2120  83.9990
O  106.2500  95.5186  84.5489
O  93.1403  93.3005  85.5238
O  89.9369  104.0180  78.5963
O  99.9314  89.7573  71.5710
O  86.3394  91.0650  86.3702
O  98.5959  102.8910  80.4190
O  107.4970  101.8290  72.8765
O  100.3940  93.1830  72.9540
O  99.8595  92.7999  83.1502
O  92.7782  104.9920  76.2514
O  86.2398  89.7731  81.7862
O  92.0553  93.3378  72.7302
O  107.1380  98.3383  72.9526
O  106.9280  95.6954  74.5056
O  97.8971  97.9793  90.4295
O  84.9176  89.9472  100.3610
O  101.0730  91.5701  99.3941
O  88.2837  94.6856  91.5636
O  92.8827  95.4156  103.2660
O  98.0279  104.3090  100.8800
O  102.2510  107.5920  98.0259
O  87.9199  107.3800  99.1043
O  96.3964  107.3450  98.4847
O  103.9480  95.3561  103.7960
O  85.5803  98.7052  94.7755
O  106.3730  91.2132  105.3460
O  100.4510  104.2420  104.4990
O  105.5290  102.1830  101.6730
O  98.7526  106.0810  98.8364
O  105.9540  93.6671  104.2960
O  90.5339  99.6099  96.0139
O  96.1277  101.4980  99.4360
O  101.3610  93.8180  101.6710
O  99.5030  98.3913  103.6140
O  101.9520  107.4480  107.4320
