670
Terminal OH atoms
O  58.0089  54.7426  38.9437
O  49.8733  44.8508  46.1688
O  50.5456  40.9463  55.6449
O  64.6885  46.7328  56.7082
O  55.5912  44.0106  50.4252
O  60.3316  54.5124  57.6906
O  47.7726  39.2824  52.2543
O  56.6262  58.1234  55.6877
O  41.3380  40.0054  54.8225
O  41.8085  56.7960  38.9899
O  58.8681  52.4056  56.8788
O  52.3738  47.2437  47.7110
O  53.3568  46.4450  45.3212
O  60.3094  57.0851  53.2976
O  63.6840  49.8992  44.6260
O  50.8772  38.3538  48.1320
O  55.2513  55.0822  51.8208
O  40.9701  55.6603  41.4252
O  42.2438  44.2835  50.4452
O  59.7637  51.2325  43.4620
O  57.6812  39.0452  48.3943
O  47.2072  53.6326  50.0843
O  57.7546  54.1327  49.9405
O  55.1247  50.1588  53.1164
O  59.2584  40.3837  73.3042
O  40.2628  54.6673  70.2662
O  44.9833  54.0259  75.7229
O  38.4211  49.6953  64.7474
O  64.7302  54.9612  67.7381
O  54.5229  41.2284  73.9212
O  57.5171  44.3152  59.3347
O  60.3921  44.2178  97.7864
O  55.0205  40.1132  84.8381
O  49.2046  40.8320  89.8927
O  53.1667  43.1996  90.5045
O  61.4903  45.1420  95.2833
O  57.0647  42.9866  83.3507
O  58.4847  50.3401  90.0835
O  51.4893  48.2502  97.9580
O  62.7682  52.5985  95.5480
O  42.6163  45.4277  83.8148
O  52.4316  40.5499  80.8995
O  56.3402  57.9350  98.1784
O  62.7990  49.7926  91.3967
O  52.0984  46.6893  85.4162
O  62.5819  40.2433  80.7389
O  45.2245  45.4673  97.8810
O  42.2730  41.9084  101.4030
O  52.4600  50.6629  104.3100
O  61.8243  46.7184  113.9700
O  61.3374  50.4858  104.2470
O  47.6135  56.3885  105.2260
O  46.6360  48.6579  102.2180
O  61.3545  47.7695  106.0790
O  60.0603  48.3548  111.2310
O  55.2315  41.8089  110.7290
O  58.3339  54.6628  102.5630
O  56.9457  49.6558  111.7900
O  47.8895  50.0510  113.8240
O  47.4229  62.9710  39.4548
O  59.3378  71.3816  51.5362
O  39.8361  61.7318  47.0510
O  60.4786  59.8397  51.8142
O  62.2761  77.1264  38.8169
O  59.8954  77.0033  39.9060
O  61.6894  68.4660  39.5112
O  46.6101  62.8520  45.8093
O  54.4370  67.8368  55.0540
O  59.7951  73.0406  47.9203
O  39.0583  74.9311  57.8706
O  54.5569  74.7904  58.5513
O  46.2087  75.0558  58.6054
O  43.0315  66.2540  68.3757
O  57.5313  73.9168  69.9474
O  45.8563  60.1493  68.8285
O  38.5667  71.3258  59.7236
O  58.7377  73.3854  74.6292
O  55.4812  64.9672  67.3693
O  62.4266  69.9131  76.0308
O  53.0490  60.1793  76.1992
O  48.3492  77.4942  65.0981
O  53.5903  65.5363  69.2325
O  49.6111  66.5539  81.2674
O  62.9313  75.3521  83.7643
O  48.1500  60.2575  91.8041
O  59.1612  65.2587  79.8476
O  63.6597  63.2258  82.1868
O  62.2309  60.4329  91.9501
O  60.2551  59.6810  95.1768
O  64.8678  75.3814  91.1184
O  50.9708  68.7086  96.9543
O  62.8003  74.0564  95.6575
O  54.2951  63.7364  93.5898
O  62.5746  77.9607  83.5957
O  64.9651  65.2535  94.2955
O  50.9137  68.6585  112.3440
O  58.3409  70.9463  110.5800
O  43.9043  70.9373  111.4380
O  44.2760  64.8893  105.2470
O  41.1492  73.0575  105.7460
O  55.6769  66.3872  115.5460
O  62.7202  76.4427  115.3530
O  50.1393  68.5825  108.6270
O  39.2389  68.9087  103.7230
O  62.1105  64.1404  98.6026
O  62.3070  71.3135  110.1130
O  64.6127  64.6602  105.7660
O  52.2642  62.1349  112.3390
O  39.9130  65.5887  116.6690
O  61.5945  73.0259  113.7680
O  59.9665  61.5766  117.6470
O  52.3847  91.0096  40.8478
O  59.6039  92.9510  52.3893
O  44.8307  97.3043  53.9663
O  64.0250  89.5043  42.4838
O  56.1127  88.2007  53.8375
O  42.0480  86.5797  53.6384
O  46.7118  86.5072  40.6035
O  64.5067  82.8875  53.7892
O  47.6308  82.2370  57.7436
O  42.2209  97.4248  56.3483
O  46.7259  92.1139  39.1704
O  56.9223  93.3688  54.7087
O  50.2088  97.4808  46.5807
O  52.3679  98.1787  58.1049
O  40.1031  98.0906  54.9942
O  44.4080  95.4371  60.5416
O  52.3908  89.7517  73.2088
O  39.8552  81.7618  74.0099
O  41.4730  80.4268  62.0198
O  43.4465  95.7029  73.3706
O  61.5192  95.6814  69.5892
O  47.7538  81.4369  74.7780
O  57.2280  97.2004  68.6618
O  54.7362  98.1285  63.9601
O  43.8132  95.7314  75.9994
O  49.6726  89.6829  73.0773
O  51.0873  91.3047  71.4802
O  49.4464  78.8712  76.0863
O  57.6731  87.9098  58.4132
O  56.1527  96.5415  79.7391
O  55.5443  86.4336  88.1594
O  48.5977  79.4868  78.5500
O  50.1054  88.7381  78.7595
O  47.7516  87.9773  94.0739
O  55.7675  79.1858  89.4571
O  54.6095  95.6513  104.0030
O  43.7674  84.3036  111.2630
O  39.8015  94.1226  103.9890
O  43.6604  85.9358  103.9410
O  39.7044  94.4684  110.0840
O  50.6612  82.5162  101.3610
O  57.1967  81.7870  112.3670
O  60.6010  93.0417  116.7390
O  43.9090  94.9011  115.7900
O  44.3901  81.4072  118.4470
O  55.1699  87.2782  117.0540
O  57.5677  97.5276  106.1540
O  64.1630  82.3843  112.8670
O  42.3745  85.3746  101.0520
O  41.8055  81.9479  118.4890
O  46.8660  82.7512  98.7195
O  45.7136  113.6900  39.3624
O  39.8949  100.7330  44.2985
O  49.2086  112.7960  39.9534
O  64.2752  114.8090  57.4603
O  64.8978  107.2130  53.2705
O  49.5790  100.3070  43.1628
O  39.9861  108.6350  51.7308
O  50.3007  110.7190  48.2716
O  61.5398  112.1710  54.2702
O  45.4228  100.7920  52.0917
O  62.6546  111.9460  43.4431
O  39.1077  117.9560  51.4905
O  45.0051  111.2580  48.3099
O  41.6173  110.2310  50.1551
O  47.2077  102.8230  52.3349
O  46.7878  103.3610  41.4645
O  41.5211  102.6720  47.2616
O  48.6032  117.2770  51.1792
O  45.9247  113.7970  56.6725
O  52.1687  109.5250  54.9976
O  52.7190  114.4110  68.0029
O  45.1073  105.9400  68.4083
O  47.8179  108.3250  65.4248
O  57.6447  117.5230  70.1735
O  45.3843  104.0620  66.5475
O  64.7602  109.7650  63.4953
O  38.8786  113.5020  72.4093
O  40.7856  110.2030  59.5773
O  42.4148  98.9932  70.5536
O  57.2130  103.0720  69.7528
O  51.6935  102.9520  76.7045
O  56.0373  105.7970  77.5463
O  42.1086  118.5520  76.2945
O  38.3376  118.6030  80.4709
O  55.3071  110.7800  85.7545
O  59.9130  100.6840  86.9080
O  57.5530  108.2270  81.2648
O  52.7808  99.1199  83.9578
O  48.4305  107.6270  83.2287
O  62.4089  115.1980  98.0038
O  50.2044  102.0290  83.3983
O  60.3637  99.8083  89.8573
O  56.3224  118.3880  85.8052
O  60.6337  118.2020  89.1536
O  59.2501  107.6050  91.8910
O  52.4702  101.9650  93.6459
O  59.2887  118.6880  84.6171
O  43.5686  112.7980  81.5664
O  50.1098  105.6620  97.4682
O  56.0072  107.4290  87.5509
O  61.6319  117.6500  84.1646
O  46.5616  116.5330  83.4636
O  60.7735  104.9250  102.2440
O  64.1791  112.6670  105.9360
O  62.6352  115.0950  101.9020
O  64.5351  103.0640  114.0040
O  50.8632  113.8760  104.1990
O  40.2273  100.7930  104.8140
O  59.9273  105.5620  113.4360
O  43.7466  102.6970  117.2450
O  45.9742  113.3380  109.6020
O  39.8600  104.0240  99.8545
O  43.1753  113.7210  117.2310
O  49.8580  103.1720  116.7500
O  57.2583  112.1990  108.5140
O  55.1418  111.7220  104.6550
O  59.7176  102.5770  106.5340
O  61.7467  106.9740  116.1250
O  76.3340  41.6149  46.6881
O  66.4732  46.4302  54.7137
O  80.1405  46.1377  46.6059
O  76.5188  55.8173  52.6027
O  83.9497  54.0212  44.2577
O  84.2882  57.8719  57.2567
O  74.0736  44.2995  47.1874
O  90.3775  54.7379  38.9173
O  81.2812  50.6292  39.2643
O  73.1457  41.0471  53.7188
O  89.2989  52.5028  43.4262
O  78.0962  38.8479  44.3579
O  82.5427  51.2053  51.9910
O  89.5220  42.4469  54.0179
O  66.5245  40.1102  51.1989
O  65.5564  53.1291  48.8034
O  68.0882  52.9631  70.7410
O  68.1985  48.4395  65.9034
O  71.4421  53.8050  68.8505
O  91.4937  44.5086  62.0364
O  88.0886  44.5858  65.7481
O  79.8857  48.1907  76.7797
O  79.4584  45.6184  74.8178
O  85.9252  44.8738  61.9210
O  82.5454  58.3345  60.1658
O  87.0486  55.2722  74.0895
O  77.6191  58.2145  69.2303
O  67.8582  41.1130  59.2606
O  89.6868  54.9400  74.0097
O  78.7725  55.5796  58.4332
O  67.0951  40.5634  90.6934
O  73.6378  46.1413  92.8821
O  65.3869  54.1230  84.8565
O  78.3112  43.2170  93.2191
O  77.1106  47.3694  81.6164
O  90.3475  50.0689  90.2706
O  78.2938  38.6483  80.4250
O  85.1321  46.9154  95.8850
O  80.2297  41.4878  80.0024
O  70.7076  41.8080  91.8536
O  89.1379  51.4702  92.1061
O  69.4370  49.6924  88.0937
O  80.7097  56.1780  84.2296
O  68.3483  57.6431  98.4351
O  90.6329  53.7718  93.7490
O  91.4857  58.0824  107.5000
O  84.7712  54.2901  99.0375
O  75.7876  50.3181  117.6420
O  85.7444  47.3544  103.7530
O  76.4404  45.3455  104.7910
O  66.7150  43.2441  116.1850
O  78.4554  46.7832  115.8890
O  77.7088  47.6824  105.4030
O  82.7870  51.2844  107.1810
O  73.2579  45.4576  110.7190
O  81.0646  47.8172  110.2220
O  75.2069  56.6608  102.1750
O  66.7589  60.6634  55.8631
O  67.0963  62.8156  44.7496
O  76.3519  71.1505  46.8533
O  81.7300  59.3674  48.6951
O  72.7728  74.4651  42.2885
O  81.0257  73.4052  51.2359
O  90.8217  62.0969  53.5086
O  70.8175  69.2178  56.1174
O  70.9781  71.7297  50.7056
O  79.9417  67.8360  49.2929
O  74.3439  71.3879  42.6608
O  82.1146  77.1454  56.4287
O  85.9963  58.7043  48.2326
O  89.7589  70.2298  44.3125
O  89.4371  77.8068  58.0840
O  80.2886  69.9339  53.5667
O  89.1846  59.3332  52.4387
O  74.5242  73.4136  56.6644
O  84.8180  58.6908  67.3927
O  85.1488  59.0375  60.4600
O  75.3181  72.4958  63.3844
O  81.8099  62.5251  67.9262
O  81.2623  73.4862  62.6614
O  89.4650  67.6291  61.3133
O  68.2039  71.5170  73.6056
O  66.1406  77.4479  70.8095
O  80.3310  72.8851  81.3219
O  86.7694  68.1903  82.5178
O  82.3575  70.5253  90.2406
O  87.8544  67.7886  91.9115
O  72.6326  76.9661  82.8439
O  81.4421  71.6214  83.3638
O  73.9440  68.0634  93.2447
O  68.8484  68.9329  89.7665
O  74.1674  74.3871  87.0399
O  67.5484  76.1535  81.0456
O  71.5827  74.7168  81.7577
O  65.3925  59.0609  94.5833
O  66.8498  65.2257  78.6388
O  75.8932  69.7748  92.4399
O  69.8966  61.7953  89.6879
O  78.6209  77.8800  94.0400
O  77.0605  58.7093  95.4882
O  71.2152  69.0658  113.2560
O  90.0740  77.3534  112.2600
O  74.7636  68.3720  98.7764
O  78.1593  63.8301  103.5070
O  77.1603  65.7586  115.8190
O  75.4061  59.4634  101.6330
O  78.5602  74.3592  108.4180
O  82.1574  77.6043  108.8200
O  87.7384  69.7376  111.0650
O  82.3918  66.7717  109.4700
O  81.5602  69.9832  100.0200
O  89.5864  66.4228  99.1574
O  76.1760  63.2870  115.4210
O  78.2255  77.0175  106.1530
O  65.4294  64.2480  116.6220
O  77.2200  81.1801  46.5615
O  82.4507  97.3655  45.5238
O  90.8014  90.3724  44.4597
O  66.4636  79.7353  40.0946
O  80.2412  94.6813  44.3240
O  65.8366  85.0963  54.2739
O  80.2045  85.8708  52.0325
O  91.3227  96.5159  52.1927
O  86.3663  89.6935  41.7626
O  89.7837  87.1564  47.2583
O  87.6618  83.7999  43.9211
O  71.0155  92.5998  65.8371
O  65.7459  85.6765  65.2139
O  69.6468  88.0790  59.5070
O  77.7282  97.1078  74.7001
O  89.5081  90.6012  68.6194
O  90.8472  97.6473  61.3573
O  68.3814  85.6737  59.4482
O  72.8471  85.3590  72.7665
O  80.6871  91.3569  66.8455
O  83.9305  96.9665  67.3794
O  84.0238  94.5904  71.6990
O  81.2307  88.5521  76.8690
O  73.4960  83.9283  59.0151
O  85.8021  98.1895  68.8810
O  88.9576  98.2387  69.9302
O  71.6062  78.6638  69.4415
O  73.1862  86.4478  90.7165
O  76.8117  96.1795  92.8227
O  81.9182  91.1856  90.7680
O  67.8933  89.5659  92.4842
O  89.9080  82.7016  85.9371
O  76.3861  80.0747  83.2330
O  75.0842  85.8671  88.7663
O  68.3550  92.3407  87.5083
O  84.4809  91.7414  90.0910
O  90.4789  86.5078  90.4059
O  90.3351  86.1098  96.1920
O  82.7586  86.1800  84.9674
O  87.5739  80.5840  89.5017
O  83.8053  89.1076  90.5244
O  66.8342  97.1405  90.5868
O  87.3718  93.9533  97.9105
O  76.8260  89.6749  86.4405
O  72.9699  97.5218  82.9900
O  75.4481  92.9404  91.5982
O  66.4851  94.1537  87.2432
O  75.9362  79.5233  94.7115
O  91.2144  96.6952  78.9570
O  74.6557  98.4695  95.5286
O  75.7822  82.9495  112.6050
O  73.2186  81.9052  111.9630
O  81.0078  80.3608  107.9720
O  84.4360  84.6618  100.8210
O  82.5434  92.8611  102.1700
O  84.7639  83.9689  114.7250
O  85.4409  82.2471  103.2060
O  90.1676  86.3793  101.2550
O  85.7821  91.5845  103.8600
O  71.7525  94.9774  104.5520
O  78.8299  92.1344  106.6780
O  89.7373  82.1679  103.2580
O  86.8268  91.2501  101.4050
O  91.7162  79.3518  111.6840
O  67.7010  98.3433  107.1840
O  75.9059  97.2378  102.9640
O  72.6997  81.6329  118.5100
O  72.6278  101.3390  42.7116
O  70.7563  109.2030  50.0462
O  89.7333  98.9963  52.5097
O  73.3222  116.8320  45.4757
O  74.2026  117.4740  43.0534
O  76.5366  117.2830  49.3808
O  70.4126  99.5923  41.4069
O  67.2859  103.5770  56.4051
O  66.5856  108.9110  46.3160
O  83.9381  117.3330  39.2806
O  73.6434  110.7040  56.0626
O  83.6520  107.1680  43.5870
O  65.1358  112.6880  54.0879
O  84.2328  110.9810  70.4998
O  85.3354  99.1784  74.9423
O  87.8854  114.7840  69.2161
O  68.2591  111.1760  65.0906
O  74.7524  112.6850  72.3212
O  86.0432  104.7640  75.6060
O  68.6358  107.1450  60.2364
O  82.0523  103.5650  61.0219
O  89.7949  108.2040  60.3116
O  78.9867  114.1460  63.8485
O  78.9683  106.5500  86.1171
O  79.4597  100.2950  94.2998
O  72.4960  102.1480  82.6429
O  68.9161  99.2490  80.2525
O  82.0475  101.0650  84.4353
O  83.9430  117.0890  83.1301
O  86.2679  99.9511  79.4628
O  76.8282  110.0450  85.1321
O  85.3487  108.0090  82.0147
O  87.2772  104.1590  80.0639
O  83.9395  110.9350  94.6216
O  75.2477  106.9000  83.5226
O  80.7269  110.6430  80.5430
O  84.2892  115.8310  86.1623
O  79.1090  116.4730  93.3907
O  79.9696  113.5000  89.4580
O  89.4563  102.0530  93.2647
O  83.1849  104.6770  88.7248
O  91.6989  106.0770  86.2310
O  72.5252  113.3070  108.4670
O  78.6236  113.5680  110.7220
O  83.3738  108.1110  100.3630
O  67.6654  101.3870  106.2100
O  83.5427  113.7150  99.3190
O  76.1682  114.4710  111.3060
O  65.7166  106.1130  106.5430
O  89.3172  103.5440  110.1830
O  88.1434  111.8420  104.6280
O  70.3718  108.9150  101.8200
O  118.1910  52.8654  49.7432
O  102.2380  49.2973  54.3160
O  95.6400  39.4401  43.0545
O  104.1590  51.6272  44.2628
O  99.2726  50.1293  53.6257
O  117.2080  46.5169  52.5356
O  106.5890  47.4537  57.1529
O  116.7220  55.3037  40.5293
O  115.6460  39.1025  47.5027
O  99.4449  48.7026  55.8380
O  114.7540  42.4335  39.4732
O  109.2260  44.4066  56.2597
O  106.0080  50.5850  57.0893
O  103.2210  38.3136  69.2846
O  117.4630  40.2179  75.6548
O  108.3740  38.4413  64.1573
O  99.2247  43.4960  64.4229
O  95.2381  58.0403  69.9926
O  98.2506  44.5189  69.4208
O  113.6810  46.6037  65.1003
O  98.0059  46.6302  71.7513
O  117.1830  47.6150  74.3539
O  106.3430  48.7759  60.6781
O  105.0810  46.3584  60.2400
O  103.3890  57.2956  71.6963
O  96.1122  48.4555  73.5839
O  106.7660  51.0719  61.9170
O  103.6890  43.4232  70.2658
O  94.6505  46.2276  73.4488
O  102.2300  53.2732  70.4525
O  117.2690  56.5566  75.6508
O  94.8447  58.1296  67.2819
O  97.9594  52.8454  82.4909
O  92.8063  45.9454  92.0439
O  104.9060  44.5554  85.8703
O  111.2340  39.7460  83.2970
O  92.4276  46.8514  88.5345
O  93.4465  44.2188  80.7052
O  99.1006  43.8742  92.5628
O  111.4940  46.3613  93.2759
O  103.1230  42.6242  94.9074
O  99.1905  46.5231  91.1972
O  118.6470  50.0778  84.7450
O  114.4880  48.3385  98.0014
O  102.3110  47.8860  98.1537
O  99.9180  52.4401  96.7448
O  96.8456  56.4905  90.0891
O  97.4262  48.2118  101.2280
O  101.4110  52.3045  105.9260
O  96.4099  39.8183  100.1890
O  94.8247  51.4833  107.5400
O  107.6710  40.5429  107.1040
O  106.9310  54.5214  104.6740
O  115.1170  52.3043  116.9510
O  116.8520  55.1885  117.1530
O  98.0689  46.2066  110.7410
O  99.6464  53.6534  107.3640
O  95.3472  39.0732  118.4320
O  108.8900  54.5227  115.4850
O  106.1820  49.8721  103.8780
O  92.1352  42.6669  98.8510
O  98.8965  64.1482  39.0674
O  118.5860  61.7197  44.9838
O  101.0330  63.3046  54.3339
O  105.4110  71.1459  38.6920
O  113.2360  63.8378  43.0712
O  105.5410  66.3211  55.8146
O  109.8420  77.1767  45.8856
O  96.8969  69.4528  52.9957
O  107.1700  75.9179  56.5038
O  104.1310  70.2217  45.8253
O  101.2070  59.0866  69.0490
O  95.4795  58.8674  62.5697
O  100.3090  71.0895  72.2945
O  115.7380  62.2678  67.5285
O  99.9798  68.3179  65.6575
O  108.2010  71.7662  59.2906
O  92.5975  71.1324  70.5372
O  114.3380  59.7052  76.6271
O  100.5800  70.6571  66.7472
O  114.2380  70.8212  67.6944
O  104.5860  69.5457  78.2334
O  107.1060  66.7253  67.4288
O  103.5350  68.1026  84.0678
O  117.6100  66.4770  93.0742
O  116.6070  64.4700  87.5268
O  101.0930  65.1214  89.8787
O  99.2588  69.9166  89.7938
O  98.5959  70.1747  81.0132
O  92.5719  61.8854  93.5407
O  97.2977  66.8192  89.0225
O  99.3811  72.9238  85.2752
O  99.8102  60.6397  97.1771
O  109.1290  67.3480  79.3161
O  95.8407  78.0826  97.8583
O  117.1120  67.7966  114.6310
O  112.6460  77.8385  106.0870
O  104.2210  69.0440  114.1370
O  101.6230  61.0073  104.9910
O  117.8340  72.1529  117.6530
O  97.3432  69.4118  108.2020
O  110.9310  65.8677  101.3810
O  113.4650  81.2793  41.4206
O  94.4739  90.9503  47.2976
O  115.4360  79.4878  51.1578
O  108.5490  90.4111  40.2565
O  116.7550  85.5938  57.1144
O  107.7560  86.3493  51.1933
O  114.3440  96.6991  48.8290
O  112.3430  83.1533  39.5874
O  101.2530  86.4948  48.7289
O  116.1890  86.0927  43.6663
O  105.7350  84.3335  46.9252
O  107.3430  81.3256  56.8444
O  111.7220  96.8560  43.9527
O  108.1320  92.0728  52.5665
O  102.8460  82.8011  45.6417
O  95.3501  81.9779  43.7094
O  97.5149  78.6501  52.7955
O  93.6970  98.1635  54.5093
O  103.9030  85.9067  57.8168
O  101.5150  98.2073  53.3928
O  96.3919  91.3009  73.5111
O  103.9540  85.0717  72.0116
O  96.8469  86.8304  70.0139
O  112.5270  81.8683  77.0506
O  101.8190  86.1333  69.2240
O  96.2855  89.9103  60.8405
O  100.2890  79.6714  68.7134
O  116.0330  86.5281  89.5399
O  101.1540  81.1639  89.5765
O  104.7790  84.1307  92.7286
O  117.8160  80.2609  83.8815
O  107.5880  97.2888  86.8402
O  105.4830  89.7125  84.3207
O  103.3270  84.3583  90.4312
O  101.0230  79.1600  92.7521
O  105.4620  88.6035  80.9723
O  106.2770  83.8830  100.1200
O  98.2895  97.8765  107.8200
O  95.3162  89.7071  104.8480
O  95.3660  93.8226  104.7050
O  92.2242  79.3518  106.8990
O  101.8840  79.0012  112.0880
O  105.7590  79.7810  111.9920
O  92.3922  79.6108  99.4735
O  113.4120  87.4730  109.9170
O  111.6170  86.0927  116.4760
O  98.7365  90.9580  110.9920
O  99.8607  91.5746  105.5780
O  101.3400  94.9380  113.6330
O  116.9340  83.4271  109.0720
O  113.4310  116.6170  45.9975
O  107.0550  100.4360  51.8753
O  101.5130  112.6610  42.2557
O  103.8050  105.2430  39.8630
O  106.1470  101.3870  48.3025
O  114.9970  111.7320  39.4864
O  115.2110  102.8390  40.7384
O  105.0790  103.2440  38.4180
O  92.7944  117.9650  58.3207
O  118.5390  111.7000  55.5168
O  106.0020  107.3120  50.9676
O  103.5820  108.7490  54.2063
O  112.4530  99.3944  38.7576
O  105.6900  104.7700  49.1590
O  106.8710  117.5760  50.2792
O  118.2520  108.9980  48.9217
O  101.2350  111.6590  44.8178
O  93.0261  105.7710  67.4500
O  106.7190  108.4050  62.3733
O  115.8400  117.5000  75.0095
O  93.0744  103.6680  65.8150
O  104.1150  101.7720  72.2365
O  95.9884  109.8280  58.8848
O  113.8390  101.2860  75.0754
O  112.4760  117.0420  76.1484
O  109.6080  101.0780  71.8763
O  112.8830  113.5420  62.4621
O  94.6406  118.2740  73.5138
O  103.4800  99.3706  70.6491
O  108.1780  102.8000  75.8119
O  104.6670  115.8280  64.6175
O  118.6320  109.3070  74.9673
O  107.3990  99.2249  83.8035
O  105.1640  105.8890  92.4131
O  101.0650  100.4040  90.4834
O  112.1690  112.4230  82.1608
O  107.9280  105.2330  83.2862
O  116.6190  112.1850  82.5168
O  109.7140  106.6360  98.1040
O  98.1288  107.5460  86.5075
O  97.4687  104.5950  81.8073
O  97.9455  109.3200  92.4418
O  103.0120  107.5500  97.5372
O  109.7580  100.2970  83.1626
O  93.4111  118.1280  96.5714
O  97.1382  110.3950  111.3370
O  100.4710  102.2780  104.0330
O  99.7204  111.8000  113.2300
O  114.8570  113.5370  111.6250
O  104.8150  110.3090  112.3470
O  114.3230  102.8250  102.6870
O  115.0370  101.3170  100.6390
O  116.4500  106.6830  101.7480
O  94.2138  113.1720  99.2365
