675
Terminal OH atoms
O  47.3540  48.8398  43.5122
O  60.2962  40.7728  47.9910
O  58.7077  38.9223  49.3648
O  58.0101  55.8972  37.4798
O  63.8041  39.0298  49.9549
O  48.6257  50.7976  47.9733
O  57.0820  49.4292  53.7224
O  54.8972  45.9706  56.9728
O  60.9897  45.3780  40.7305
O  48.4903  47.0709  51.9240
O  53.4584  47.9678  55.7617
O  58.5221  39.8042  56.1417
O  53.3194  46.0442  66.9681
O  46.0773  50.1722  71.6720
O  37.6284  44.0412  58.2849
O  42.0605  53.2889  66.9154
O  41.2459  53.6285  70.0803
O  39.7720  39.1685  68.6209
O  43.9420  55.9465  62.5825
O  51.3034  48.8399  74.9259
O  50.0439  54.9472  64.8836
O  60.8873  56.7664  59.3784
O  51.1838  40.5361  78.8917
O  37.5865  52.9598  81.6525
O  43.1705  41.2271  83.6315
O  58.5568  55.4383  87.5489
O  52.4708  54.1437  83.5042
O  42.9588  46.0937  81.9505
O  38.0110  54.4453  84.6370
O  49.3471  47.2512  78.1671
O  40.1396  57.1847  94.8561
O  39.7742  53.6519  90.3236
O  42.3406  55.6423  82.8438
O  39.8686  48.6450  94.8567
O  44.4823  42.0444  81.3519
O  46.3712  38.2666  91.3876
O  46.7361  49.6172  85.6092
O  40.4049  51.5192  88.8055
O  51.0732  54.4072  96.5482
O  44.1689  38.2396  83.2910
O  54.0997  54.1076  97.5994
O  46.9672  54.7094  88.2724
O  47.4149  48.5542  80.1603
O  37.6101  42.3607  82.3369
O  38.0780  44.2036  92.8255
O  38.6949  42.7344  77.6194
O  40.5967  49.0459  109.2100
O  51.2518  53.5335  99.4063
O  46.6811  49.0268  102.2920
O  62.0233  37.9764  98.8504
O  41.6928  44.3117  98.3845
O  61.1694  45.7178  104.1160
O  62.1047  43.5309  100.0740
O  40.2401  40.6778  116.8560
O  57.7374  38.4136  108.2190
O  47.5677  66.5485  39.0788
O  54.8431  60.2608  50.8997
O  39.4014  76.7148  45.9809
O  62.8816  75.7568  52.7092
O  54.1949  57.7318  56.6403
O  46.9017  67.7029  49.1590
O  49.1496  62.9476  50.1352
O  61.9362  62.5879  54.2510
O  41.4464  75.5538  47.5225
O  39.6473  74.1971  40.2182
O  62.6863  65.3574  39.4396
O  43.1758  77.4536  40.5475
O  46.1484  68.3627  67.4292
O  39.2775  76.6138  65.3128
O  46.5413  68.0793  64.6364
O  55.1236  70.2426  57.6155
O  38.0424  60.4639  76.6112
O  41.5911  74.5093  62.0534
O  57.9065  73.3010  61.8322
O  48.5210  65.4632  59.8199
O  53.8391  59.4771  72.8479
O  61.9829  76.7547  60.2143
O  40.4620  75.2055  75.6374
O  63.1721  74.6516  62.0732
O  61.8407  71.2617  65.5634
O  60.8306  64.3110  71.5793
O  45.2666  60.4472  64.2030
O  63.9207  68.3468  66.5787
O  55.5128  64.2161  59.4245
O  47.1664  69.6925  71.5558
O  54.0461  58.7886  78.6676
O  44.1490  61.3117  81.9764
O  61.5799  68.2323  84.9841
O  49.9803  75.8520  80.9016
O  53.3770  73.7064  83.4713
O  38.0315  58.4330  84.2618
O  37.6251  72.4376  81.7975
O  53.7301  68.6215  80.3209
O  40.9595  57.6501  97.4877
O  58.1179  63.3652  77.6330
O  62.6860  65.0023  83.1204
O  40.3614  76.7177  101.3800
O  41.2053  69.2089  116.3250
O  46.4798  63.6030  101.7750
O  50.3829  70.4790  109.7930
O  40.5126  59.4101  114.6120
O  49.4578  61.4668  106.5580
O  62.5726  61.1947  105.9430
O  39.1103  58.6072  112.2450
O  60.5222  77.0629  110.5070
O  42.9367  72.8708  109.0980
O  43.8441  72.4542  101.3050
O  54.2416  58.0447  106.5530
O  51.4327  74.5518  117.3350
O  54.0630  62.1782  117.0840
O  37.4010  65.5044  112.7280
O  40.3715  95.4905  57.1357
O  61.8463  87.7408  37.9793
O  37.5823  88.6350  42.5311
O  46.7576  88.2866  52.2399
O  44.6697  96.2693  42.7158
O  48.1683  81.4282  44.6611
O  43.7677  82.6264  38.0076
O  38.3069  84.0407  56.5115
O  51.2419  86.5108  73.3914
O  52.1309  79.0414  64.6807
O  46.0150  77.8946  74.1844
O  49.6405  82.3208  73.0013
O  53.6910  85.0275  65.3812
O  58.5359  94.6631  66.7909
O  60.0271  78.1774  70.8913
O  54.1436  91.2752  73.0619
O  54.3359  89.0045  74.5021
O  54.5891  93.0969  70.9196
O  48.8628  93.9028  61.5168
O  47.1567  78.5636  60.6483
O  41.0557  91.0488  68.5277
O  42.0456  85.0046  59.4839
O  57.7280  84.2101  67.2879
O  56.3465  92.5423  65.4718
O  46.0499  81.2058  67.2756
O  40.9472  85.0435  80.2821
O  43.7900  92.8330  80.7546
O  43.7541  91.4813  90.6045
O  41.6684  86.6792  86.3266
O  55.2012  83.3975  89.0899
O  41.1555  80.7660  82.5266
O  38.0445  85.4443  91.3044
O  41.2207  97.3752  78.3698
O  52.3929  86.0270  79.2139
O  60.1744  91.9083  81.7464
O  55.8743  90.3568  83.0348
O  48.3800  86.3180  84.6413
O  40.2746  80.1247  95.2509
O  60.7076  94.8219  85.1014
O  45.8383  93.5602  94.3064
O  40.6758  85.3617  84.0423
O  63.4927  88.0334  85.2067
O  47.4389  94.7378  84.5596
O  46.3275  82.9266  85.4440
O  46.7394  96.5037  86.6773
O  47.7755  78.2297  105.3400
O  62.9185  86.8410  107.2100
O  52.2005  86.1461  105.6890
O  46.6380  80.5833  109.7190
O  52.7359  77.8533  105.7080
O  57.6924  84.3085  103.1940
O  38.8394  95.2863  98.7610
O  50.4409  93.8391  112.7450
O  63.4084  95.6573  108.5980
O  45.7234  97.5545  102.0620
O  43.9465  77.7269  112.4140
O  60.6021  83.1536  116.6320
O  63.6465  92.4460  117.5950
O  62.0338  105.6110  56.3294
O  55.8353  107.2750  39.7732
O  40.8230  100.0350  51.5104
O  38.7535  107.0770  49.0773
O  54.4318  105.0970  54.2528
O  61.7354  110.1220  43.1100
O  45.0292  103.6230  56.3697
O  57.4990  114.9150  49.4186
O  44.0392  106.9450  45.7333
O  44.1284  111.5910  48.4185
O  42.8922  108.5220  38.2533
O  58.9417  101.1060  56.4372
O  45.8964  110.1520  60.7644
O  37.8718  105.8310  73.0909
O  42.6845  113.8520  69.0049
O  44.2171  108.3190  59.7442
O  43.9809  111.9510  61.6186
O  38.3149  105.7090  69.2397
O  45.4296  117.0100  71.9779
O  50.6084  104.8600  59.2347
O  43.1343  115.8800  67.3546
O  43.5221  98.4184  61.8701
O  61.4761  113.6320  71.0730
O  63.9533  116.8410  74.7402
O  43.6421  108.9030  62.3743
O  48.8239  112.5840  57.8608
O  48.7986  107.8070  63.5536
O  52.4371  100.2790  87.7012
O  39.9700  110.8460  96.6263
O  60.7384  114.5560  96.3102
O  50.4272  111.6350  80.8997
O  45.4443  108.4590  97.2642
O  42.0217  111.4970  93.4343
O  46.9862  102.3620  92.2854
O  48.7435  106.6530  108.2450
O  49.2344  110.0750  112.8730
O  56.4404  98.5816  100.1070
O  51.1006  109.9780  99.0968
O  47.8548  108.0580  114.0190
O  52.0512  115.3370  98.7473
O  53.1204  108.0510  104.5860
O  39.5794  106.4120  100.2800
O  48.5659  111.2040  98.1459
O  62.3799  100.3980  112.1370
O  57.8428  115.1560  104.0530
O  56.2013  113.6660  108.8850
O  63.8139  108.7010  114.7710
O  38.9660  106.1030  97.7164
O  67.7313  44.5062  46.9303
O  76.5853  45.2116  39.5217
O  79.8680  42.7697  46.5380
O  76.0072  49.2449  48.6113
O  87.9962  50.2434  43.3325
O  78.9239  41.4682  50.2691
O  68.8444  45.0037  49.3028
O  70.1450  50.3278  43.4078
O  76.4540  40.1299  56.5449
O  88.9458  49.8955  38.3862
O  75.0772  51.2974  55.7129
O  83.6709  45.2706  49.6884
O  83.2306  51.9551  47.7236
O  85.3279  52.9230  56.0822
O  88.9593  49.8845  49.3916
O  65.9778  56.0036  58.0374
O  90.4666  47.4387  65.4270
O  81.4383  43.0001  58.3386
O  79.7447  49.9181  57.6085
O  67.9136  39.1155  65.6678
O  90.2194  50.3117  72.6869
O  77.3528  40.8522  67.1205
O  85.9800  40.6354  74.6755
O  88.8880  42.8278  75.1702
O  84.6702  55.6755  60.9526
O  74.8672  52.7706  71.6831
O  89.9771  55.9388  66.6950
O  74.9415  37.7523  74.6476
O  86.5744  43.1230  73.8155
O  75.3886  55.6916  74.9870
O  74.2902  57.3232  59.3245
O  86.8064  42.2688  86.4694
O  85.7164  56.3557  90.8249
O  79.3648  41.5938  88.2335
O  81.5865  39.2742  95.7815
O  66.2856  38.5477  83.2395
O  73.4661  49.9354  80.8685
O  79.0629  45.5189  91.2145
O  78.9355  45.4438  95.6105
O  79.8828  40.7029  82.5349
O  76.9660  55.3617  90.1734
O  74.7408  46.9314  94.4757
O  88.5391  41.8662  93.6077
O  75.5727  53.9243  78.7543
O  80.6146  45.5911  81.5491
O  77.2668  46.7459  97.2511
O  64.0993  51.1485  102.6060
O  85.0480  38.1785  107.3500
O  70.1758  45.2977  111.3010
O  72.8570  50.4455  99.8307
O  87.8805  43.2932  103.0660
O  88.6532  48.2129  116.6140
O  80.2483  55.1726  104.6760
O  87.7015  50.1520  97.8458
O  71.6780  52.9291  98.0794
O  64.7471  75.3643  40.8086
O  72.5815  59.4672  39.3506
O  68.6333  68.2803  42.9668
O  65.6108  63.7226  48.1771
O  81.7322  58.4099  50.5707
O  73.2356  68.4878  45.7539
O  86.2867  67.4653  41.8116
O  74.6722  65.4785  44.6176
O  69.9562  61.8392  49.5110
O  86.9020  66.9494  47.4426
O  73.0235  61.2183  41.3887
O  84.4806  69.2653  43.1627
O  69.3156  59.5071  60.2258
O  69.3096  67.1901  73.7663
O  83.8384  59.7511  57.5036
O  67.7266  76.4156  65.4368
O  66.6960  65.5393  63.0788
O  75.4662  67.1588  60.9359
O  85.2571  66.2810  65.5852
O  83.6313  69.2692  72.1011
O  81.7770  74.6478  76.3856
O  64.4859  71.6986  65.5260
O  87.3410  66.1082  76.9105
O  79.7384  62.2253  77.3007
O  87.3448  65.9664  89.7402
O  71.1504  61.2969  95.8096
O  80.0368  62.4787  90.4109
O  78.4263  75.9091  82.4791
O  78.1874  76.4340  90.9264
O  81.8221  74.2982  93.3251
O  64.4458  70.9474  89.4615
O  65.1165  74.6745  88.6585
O  72.3658  61.2042  93.3399
O  67.5154  69.0218  84.1105
O  75.5041  75.8976  94.1235
O  67.9684  71.8927  94.4610
O  90.2198  62.1394  91.2304
O  79.4866  77.3045  88.7658
O  68.5668  65.7766  77.4962
O  87.3780  65.9675  105.7670
O  65.2035  76.0791  112.1150
O  75.2927  73.3907  100.1340
O  83.8737  69.9695  106.0540
O  86.6226  67.5049  103.7600
O  89.6398  73.5901  117.1200
O  69.8150  61.6525  116.7240
O  73.6555  67.9807  111.4950
O  87.8697  73.0694  112.1850
O  71.9234  68.7523  103.2840
O  79.6861  94.3471  40.9613
O  81.8038  79.9054  38.4225
O  82.5044  80.6030  51.1145
O  85.3566  86.3571  50.3112
O  72.4822  90.9299  47.7456
O  75.8643  77.5995  50.4891
O  82.2609  97.5368  55.4190
O  89.5108  93.1928  56.2541
O  77.4947  85.6467  46.3069
O  88.7150  80.2070  43.8023
O  70.8641  94.2413  45.0660
O  68.3495  87.0647  56.7689
O  68.1280  97.2357  52.7503
O  83.9759  89.2738  67.4688
O  65.0005  79.4006  69.4594
O  84.8590  78.0107  74.5994
O  64.2017  93.0608  68.3829
O  82.2650  80.1399  75.7655
O  76.9794  93.8599  67.5173
O  73.0548  94.7163  76.0042
O  85.5399  80.9897  68.7046
O  79.8482  93.3799  63.4804
O  66.9668  97.4012  68.8658
O  75.9275  85.4018  69.5134
O  85.8388  86.4203  71.5794
O  87.3952  96.4928  74.7985
O  70.6642  95.0238  77.1415
O  89.6813  82.2899  78.8147
O  64.1736  89.5500  83.0775
O  74.3630  93.6798  83.6870
O  70.7190  79.1144  84.7355
O  72.4838  87.9583  81.8389
O  73.3304  79.6243  88.1421
O  72.8701  90.7615  85.7165
O  72.5144  87.6440  95.0790
O  76.2688  80.6914  97.6552
O  71.2817  78.6119  100.0080
O  67.2079  91.5184  105.7290
O  67.1298  80.1652  104.3930
O  67.1944  81.6455  109.1420
O  86.6362  78.5431  114.8750
O  79.5883  95.8660  116.2180
O  68.6380  79.2527  115.3380
O  78.5310  89.8396  116.4320
O  75.5960  82.0216  104.7560
O  77.0461  90.8265  113.7070
O  66.1699  78.6094  108.7180
O  68.1840  94.7663  111.6920
O  65.3913  79.4163  117.6050
O  90.3489  77.6083  98.6654
O  81.1782  105.7430  48.5217
O  65.7254  102.3380  48.8910
O  86.0412  109.6150  51.9560
O  75.9870  114.6040  46.9612
O  76.8866  114.6400  49.4657
O  75.2899  108.7410  41.9962
O  89.9952  101.1190  51.5421
O  79.3148  103.9650  45.3601
O  68.1639  108.5760  56.9724
O  75.3539  116.2670  55.5195
O  72.4111  115.6560  44.7363
O  89.4325  100.0380  46.5046
O  85.7086  112.4540  46.7775
O  90.6131  113.8620  47.9693
O  68.5410  115.1030  57.0797
O  85.1709  100.0190  55.5731
O  81.7089  110.2580  75.0291
O  78.6798  111.6990  70.0448
O  81.7060  114.6850  76.2602
O  64.5902  113.1210  69.7450
O  78.8650  105.9880  73.4399
O  77.9704  111.8190  67.4401
O  81.0927  101.0590  63.8280
O  70.2440  110.8020  74.7504
O  88.5385  106.6150  76.4472
O  81.1231  100.3760  72.8024
O  73.5322  115.1380  71.3850
O  78.9393  116.6750  74.7234
O  87.7269  104.6080  74.7656
O  89.4278  111.2830  59.1158
O  87.2981  114.5650  75.0314
O  65.0050  114.9020  73.2831
O  81.0512  102.7710  60.6241
O  83.1309  102.5350  69.9192
O  64.3973  109.8740  75.8574
O  86.0883  116.9410  73.3070
O  83.1033  116.9650  76.1625
O  70.3707  113.2590  58.0546
O  79.0503  113.7160  96.0538
O  84.7140  106.8110  81.2839
O  73.2155  109.8850  82.6484
O  86.9561  116.1180  92.7773
O  86.9835  113.3750  89.2500
O  90.3712  109.8620  89.9348
O  84.4358  114.0520  88.9834
O  85.7987  112.9970  93.9859
O  78.0755  106.0570  96.8772
O  76.9395  106.2840  87.8065
O  84.7160  115.8280  91.4848
O  83.5875  99.2453  91.8538
O  79.2985  111.4910  82.3435
O  78.3852  105.0470  82.9897
O  89.4876  105.7270  116.7640
O  89.9576  109.4220  113.6600
O  68.5075  110.6390  101.9270
O  77.2412  97.8587  114.2270
O  88.2326  116.3450  103.2770
O  65.9420  110.4080  107.8160
O  76.8979  108.2350  114.9170
O  81.1992  107.8050  103.9020
O  74.8616  114.8650  99.6572
O  66.0823  107.7600  108.1130
O  101.4390  40.1127  40.3851
O  93.4209  55.1238  38.7952
O  101.0460  40.0892  46.3107
O  109.2340  46.4722  54.8781
O  103.4780  49.2523  38.7610
O  112.2910  40.5984  38.9036
O  114.6080  50.6530  56.4668
O  111.3950  39.5998  43.8155
O  106.2690  40.3913  45.6168
O  102.7170  50.4528  42.2183
O  104.3730  53.5372  46.0473
O  107.1830  37.9154  48.5840
O  110.8170  53.7516  50.2523
O  95.3029  54.7265  49.7516
O  100.1680  44.8408  39.9372
O  92.0281  47.2708  44.7321
O  106.0940  46.4589  55.6397
O  101.0780  46.6524  51.7597
O  99.3915  51.6812  39.0949
O  96.6871  50.5069  76.1872
O  97.3708  56.7002  67.0606
O  98.9371  49.4737  65.4703
O  109.1060  47.4459  77.2483
O  107.6830  50.5965  64.0561
O  94.7653  52.5115  75.2793
O  99.0428  49.5505  77.0415
O  108.3600  52.1700  59.9975
O  97.0441  51.2454  69.6358
O  104.3790  46.2194  66.1270
O  100.4000  53.1754  58.6941
O  112.2040  53.8460  62.0878
O  101.1630  53.1850  72.8926
O  103.6360  50.0800  73.4023
O  115.7880  44.2403  71.8915
O  93.1304  56.0351  61.4943
O  100.7730  37.4799  83.8325
O  113.3130  47.2184  94.9836
O  95.6979  41.3483  80.8410
O  111.4400  50.5708  95.0003
O  110.9100  42.0810  83.5445
O  91.1165  55.2101  79.0476
O  111.6330  52.0263  90.8278
O  111.3980  39.4379  83.2648
O  103.6580  42.7514  93.0692
O  96.2626  37.8402  80.9504
O  115.9830  54.4233  94.3827
O  99.7772  48.4152  80.4163
O  105.2700  43.4943  95.0426
O  92.4386  57.2920  81.3961
O  103.6620  50.2142  92.9407
O  110.6570  46.3148  105.2580
O  101.5770  46.4183  103.0380
O  94.0046  46.2106  104.3610
O  97.8748  51.6209  114.6620
O  115.4150  42.3726  112.1610
O  102.1800  48.7729  111.9240
O  116.0870  45.6413  102.6560
O  100.5530  56.9251  110.8370
O  100.8710  57.2443  108.1660
O  114.1540  53.8552  107.2510
O  108.9730  42.4347  102.2700
O  116.4180  43.2971  104.5110
O  102.5830  41.3859  114.2120
O  113.4000  38.8900  115.0020
O  117.0490  48.0826  103.1600
O  102.5350  73.6224  53.7516
O  95.1553  64.8943  54.6046
O  113.6450  74.8628  41.3132
O  114.9370  71.5775  45.3006
O  115.4940  73.8308  51.9048
O  115.0190  60.0169  48.0660
O  101.6450  63.9885  48.7564
O  91.8179  69.9985  38.2438
O  116.3580  76.2087  48.0338
O  116.7790  63.3604  54.2096
O  104.1950  62.5049  65.3903
O  102.0070  66.7703  64.2197
O  97.2027  60.5537  70.0120
O  100.9200  65.1336  72.7691
O  104.7780  69.9427  62.0345
O  104.6910  60.1549  59.5057
O  111.1850  63.3912  63.1430
O  98.4384  59.0117  67.9301
O  109.7700  70.0288  74.8726
O  102.5620  61.5454  61.7460
O  97.4073  76.0560  72.8333
O  97.4363  77.5050  61.5100
O  106.7910  77.4488  60.0308
O  107.9200  58.7824  80.6095
O  108.4690  65.7693  81.4328
O  95.3049  70.1329  90.8686
O  98.5407  65.2924  82.5508
O  93.1657  77.1474  83.1470
O  110.2090  74.0387  79.4813
O  103.8700  75.6741  95.8551
O  101.7010  71.4299  86.0098
O  106.1840  68.6873  83.5015
O  116.6480  69.5107  82.9406
O  93.8748  63.0107  86.4949
O  91.5274  63.9776  87.4962
O  100.8610  64.7921  81.2169
O  100.5860  74.8527  95.3783
O  105.3590  58.1649  85.3774
O  101.1250  76.0923  84.0316
O  107.4180  59.6362  86.4005
O  107.1440  72.6998  83.4029
O  95.2738  71.6508  93.1574
O  102.5680  62.4547  85.9169
O  115.1970  63.8238  110.3250
O  97.7395  72.2298  106.0900
O  113.8920  76.9679  108.4580
O  105.4980  58.0555  105.2880
O  100.9880  63.1353  115.5210
O  93.7736  63.4859  111.6910
O  108.3630  68.7982  111.5330
O  113.0020  65.3716  110.6610
O  99.0606  75.5215  105.5710
O  109.4510  60.1011  111.8000
O  92.1147  72.4682  117.3650
O  93.0733  95.6274  39.4021
O  111.6830  85.6111  38.7460
O  108.3000  89.0809  41.0924
O  98.0868  88.1177  45.3377
O  116.1010  90.7742  56.4526
O  98.3929  93.6801  45.7588
O  116.7700  83.2760  42.7907
O  94.0119  92.3813  57.2628
O  94.3886  85.4393  54.0803
O  94.9637  94.9370  41.2228
O  91.8075  97.3572  47.4906
O  109.1620  89.9758  37.7085
O  103.3950  84.2339  71.1208
O  109.7220  77.8184  61.7220
O  117.3000  95.6993  60.1216
O  101.3080  78.4179  67.9627
O  94.6658  96.2705  74.0957
O  96.2345  88.4907  72.3960
O  96.1711  79.6918  76.0205
O  114.8500  84.5450  60.2207
O  102.6800  86.7709  84.4748
O  105.9710  89.7241  80.2891
O  95.9567  91.7233  95.3072
O  101.4760  85.3655  94.1128
O  112.4280  91.8588  79.4148
O  109.8130  83.6701  90.3869
O  95.9451  86.9059  79.3299
O  91.5344  93.7773  84.8480
O  95.2975  91.7745  79.7527
O  112.0570  87.1142  95.1250
O  116.9450  79.2703  85.1004
O  92.2367  91.6425  86.7015
O  110.6190  95.5947  96.5110
O  107.1690  79.4312  94.2586
O  94.2535  95.5478  91.7766
O  101.2230  97.6093  89.0488
O  102.7170  96.1745  92.3699
O  107.2720  77.9455  90.8704
O  110.9250  79.2064  79.3577
O  92.5910  96.8579  98.1410
O  99.8365  82.2031  115.7640
O  93.7159  79.2260  98.9273
O  101.4770  89.4149  111.5550
O  93.8719  90.7598  99.8076
O  105.7050  85.3237  98.2353
O  105.2110  86.4574  109.9510
O  115.5110  86.2610  101.9050
O  111.4490  87.3101  107.3010
O  94.2893  92.1840  105.7740
O  107.3540  85.3564  111.9920
O  100.2500  88.2294  114.0450
O  105.3430  88.3548  107.9680
O  109.7220  78.3898  117.4900
O  108.2450  92.9674  101.3560
O  93.3821  94.0164  113.8700
O  108.1390  89.7401  107.8050
O  111.2140  89.0192  104.0270
O  108.2400  98.2162  42.6840
O  95.5215  104.6890  55.4787
O  109.8370  103.0480  42.5193
O  107.2550  105.8820  38.5003
O  115.9290  111.9820  41.0744
O  112.3400  112.7990  53.4569
O  108.9910  97.9969  47.8157
O  103.1090  113.4000  47.5308
O  105.9520  111.1590  42.8420
O  110.3610  113.3690  47.9885
O  97.0286  106.8600  55.2844
O  102.3190  107.3160  58.9230
O  116.3140  107.6670  61.3716
O  91.5938  104.4140  73.2176
O  95.3035  104.2700  72.0295
O  112.4170  111.1640  72.8744
O  103.1020  114.7560  74.6757
O  109.4960  108.9170  73.7680
O  101.9010  109.8450  70.8116
O  97.1380  109.1680  63.5179
O  94.6186  109.5010  64.7668
O  113.9510  110.5830  70.7917
O  112.7260  106.5660  69.0357
O  115.7420  117.0030  70.5326
O  112.0310  100.0720  67.8654
O  112.6380  106.7690  74.0532
O  91.1692  98.5854  77.2176
O  99.0112  102.8070  86.1938
O  93.6282  115.3040  84.3548
O  96.9621  110.4630  88.0682
O  110.2280  111.5190  90.1880
O  96.9458  102.1240  84.3389
O  99.1862  111.9510  82.9234
O  103.6890  110.0260  97.0430
O  93.5244  104.9370  81.8563
O  99.2123  116.2420  91.8964
O  102.7400  101.5410  95.9773
O  102.9460  102.7290  88.8567
O  111.6220  100.7160  89.7982
O  103.9610  105.9620  84.6590
O  97.7412  105.6390  78.3471
O  98.0422  111.1430  91.3595
O  99.6501  106.1970  87.7970
O  116.2260  110.2440  85.7112
O  102.2130  117.2940  78.5101
O  97.8645  112.4660  97.6618
O  107.4410  102.6010  100.9710
O  111.1060  112.9640  106.0470
O  98.3486  117.1640  113.8450
O  100.8640  113.8500  109.5260
O  100.7460  109.1890  113.0090
O  100.8230  101.2980  104.8460
O  91.8409  101.7570  114.8310
O  101.2490  101.4230  102.1650
O  98.5856  105.6450  111.4530
O  100.9460  108.1930  110.3570
O  102.2390  98.9062  100.1790
O  101.0820  106.6030  101.6420
O  98.1432  109.5230  113.7950
O  93.2305  105.3090  115.2760
O  108.2130  110.0560  107.8050
O  106.1440  112.4010  111.6010
O  105.2650  106.0470  107.9930
O  116.3220  116.2700  104.1710
O  105.0480  117.3940  113.9360
O  115.5920  100.3900  98.5571
