646
Terminal OH atoms
O  57.8456  40.9283  44.4119
O  62.8743  40.8399  51.0260
O  55.5127  53.1831  46.6892
O  58.4128  49.1968  43.7151
O  44.1086  57.5514  38.9193
O  46.3216  43.4816  38.8163
O  52.4964  54.0378  40.0872
O  56.7290  51.6301  48.4365
O  47.9426  45.0368  43.9368
O  52.0321  50.2561  47.2703
O  48.5986  55.7595  40.3814
O  42.6135  40.3976  44.9298
O  51.4071  41.4611  55.2043
O  54.1325  38.5776  57.3512
O  45.4883  54.9549  41.7741
O  55.0126  46.1515  54.2042
O  64.1330  51.2501  57.5102
O  59.0799  46.5911  38.5986
O  59.6114  50.3625  38.8297
O  52.5198  39.1070  74.6501
O  58.1046  38.3854  61.9475
O  52.7259  41.5151  67.1818
O  44.9072  42.6688  66.2593
O  56.0313  52.3350  72.4368
O  63.7170  42.5694  63.5496
O  46.1962  38.6066  76.3208
O  63.0962  41.3136  88.0730
O  58.9311  43.0065  89.1103
O  50.7252  44.6579  95.2461
O  63.0822  47.3334  85.8334
O  64.7926  40.1113  83.6519
O  59.8001  55.8596  98.3762
O  39.2202  48.4047  97.5794
O  55.5915  55.2956  89.8126
O  54.6730  57.1528  79.6315
O  56.3492  58.2189  84.2378
O  64.4728  45.2139  86.7611
O  46.2212  57.3399  81.9714
O  44.2130  38.5007  102.0490
O  38.4949  52.4088  113.1870
O  54.3723  39.9905  102.1650
O  53.6901  42.7216  117.1920
O  52.0061  55.5047  114.9320
O  59.4064  49.5117  100.8870
O  43.1144  40.5685  118.4850
O  64.3540  49.0564  109.3210
O  57.8292  48.0241  112.6650
O  62.9780  50.3154  113.8520
O  47.3190  45.5062  116.3130
O  50.2599  52.8037  114.6120
O  38.5795  69.5440  41.1150
O  43.4047  70.8723  46.4872
O  43.3823  61.8434  50.2279
O  43.0166  65.1935  56.2240
O  60.1998  76.9910  49.0525
O  55.9113  58.5216  40.1868
O  49.1825  77.2324  56.4411
O  42.7150  73.4061  49.6749
O  58.6704  70.0054  55.4708
O  61.2717  70.9285  53.8528
O  51.0054  74.1013  49.0445
O  62.2906  72.0247  51.6191
O  63.2152  69.2793  50.5548
O  39.7469  60.6842  46.0405
O  58.8850  78.0195  73.8408
O  45.3395  62.4643  76.4258
O  56.1344  66.6903  76.3104
O  56.3216  75.8022  71.3141
O  40.3608  77.2571  69.1624
O  51.6348  63.2730  76.4595
O  58.0245  61.9265  77.1470
O  46.3891  61.1282  72.0436
O  43.7301  78.3532  76.3108
O  64.4477  69.7897  65.4223
O  51.5596  69.5617  70.4759
O  41.5729  65.3188  58.5705
O  54.2783  67.8421  82.8502
O  43.5029  65.9935  80.4382
O  43.2278  76.4562  80.9022
O  56.3388  65.4339  94.2059
O  52.6709  73.9567  82.4640
O  45.4503  74.9094  87.9846
O  62.9732  71.4287  94.5311
O  57.7977  76.4125  82.2865
O  40.4566  66.8618  95.1271
O  53.3125  62.7506  85.3955
O  59.8718  76.4229  96.4508
O  52.1236  60.2807  94.2132
O  62.5493  69.9264  91.7515
O  60.2774  59.8999  96.8732
O  64.4165  72.8087  85.8049
O  43.9801  62.3958  78.6819
O  39.2792  62.9392  105.5440
O  50.5607  60.6782  103.8640
O  44.4948  58.3955  117.2350
O  45.2094  68.9884  113.8410
O  40.4134  74.0390  99.8756
O  64.6210  62.7736  109.9460
O  62.6690  69.3445  100.1030
O  57.4506  79.5270  55.6954
O  63.6325  95.6364  53.1147
O  55.0257  84.8342  38.4029
O  38.6317  92.6995  38.2632
O  41.2155  87.7770  51.1400
O  48.1914  90.6792  46.2219
O  44.4422  90.6478  51.0150
O  38.9487  94.7458  57.2991
O  46.6246  90.9239  42.5020
O  39.1022  81.3556  46.3487
O  52.6159  80.7613  55.7248
O  52.7047  85.2191  56.6024
O  38.5100  80.9243  50.5616
O  39.3028  89.3290  57.4257
O  51.1929  79.2067  52.0772
O  52.6379  82.8330  73.7578
O  42.9871  96.0831  74.0068
O  39.7421  82.8703  73.8567
O  64.9953  92.2797  73.6876
O  61.5368  95.6903  77.4949
O  54.6340  97.5020  60.5973
O  56.4313  92.4319  75.1263
O  63.5079  81.5462  64.0587
O  38.3160  91.7701  87.6922
O  44.8437  79.2349  83.0240
O  56.3544  96.1138  89.7690
O  63.2176  86.9361  94.7377
O  41.7721  81.5376  89.5077
O  45.8776  91.2762  91.3460
O  57.1250  79.0611  86.3026
O  62.3501  95.8142  84.7831
O  64.5539  97.2976  88.6055
O  64.9446  88.9981  80.7422
O  58.2857  80.1621  91.8901
O  64.7964  84.7551  96.4246
O  53.6575  79.3953  81.1980
O  62.7852  90.1773  90.2054
O  55.6351  94.8130  92.0015
O  38.3932  96.6101  93.5302
O  63.3919  81.3183  113.7430
O  56.3944  89.6985  98.8669
O  63.7364  95.3418  99.0773
O  63.9313  87.7876  115.7630
O  62.2266  93.3861  105.0590
O  64.5459  100.1510  44.6481
O  40.8148  106.5070  48.8753
O  62.4241  116.6170  42.9174
O  49.9415  109.5540  38.9364
O  61.2712  118.2750  50.8539
O  58.5151  116.8220  53.4950
O  39.3831  111.3790  56.2030
O  41.5096  111.2660  39.2686
O  62.2732  112.5350  41.2599
O  38.8097  104.1550  50.2812
O  63.8887  115.6890  57.4825
O  42.5889  118.9720  38.8207
O  38.2347  116.8790  77.4210
O  53.3471  110.7730  64.8770
O  54.6973  101.6170  61.6097
O  51.3790  111.9700  62.2778
O  44.4028  106.4920  68.4002
O  58.7291  115.0070  68.0708
O  51.1176  102.9230  75.0743
O  63.6359  117.9860  70.0505
O  38.2406  115.9610  66.1760
O  49.5860  102.2240  84.8214
O  62.6621  109.3590  88.6296
O  51.9443  109.4700  85.7464
O  54.1547  102.5160  82.2723
O  59.6091  105.1980  87.2668
O  62.1604  105.6200  81.8411
O  50.0147  118.0840  96.9843
O  58.3101  103.8580  83.5223
O  40.4496  101.3240  96.4109
O  63.3704  114.5470  83.2479
O  49.7790  111.9520  96.3306
O  53.1612  112.6900  96.9760
O  63.1943  115.1080  87.8321
O  51.2765  102.5710  89.1066
O  52.0520  106.2830  90.2707
O  47.9197  106.4400  95.7714
O  51.9048  110.5880  108.2830
O  48.3255  106.2420  110.6430
O  62.7850  100.1790  115.4490
O  39.6335  102.3120  115.9240
O  43.3281  104.6170  105.4490
O  60.5596  112.1150  108.1690
O  44.6795  110.6470  109.8760
O  39.9789  109.8990  105.4920
O  53.7184  116.2350  113.5550
O  49.5981  113.0910  103.0140
O  64.4992  111.5080  113.5620
O  40.8626  115.3540  105.3730
O  45.4276  113.2940  109.7490
O  51.5800  117.9590  113.7660
O  49.3325  115.4030  109.9270
O  45.9205  106.8100  111.9640
O  54.8657  107.2240  117.9940
O  50.6014  105.5190  118.5250
O  87.5143  44.7116  42.0920
O  90.4789  52.0233  53.4013
O  72.5146  53.3071  49.6722
O  69.5427  54.1124  45.2823
O  84.4486  44.0968  54.4400
O  74.7700  52.9257  53.8229
O  91.4076  42.4883  56.8433
O  85.5986  43.3970  51.6762
O  86.7691  43.7146  39.7624
O  87.6190  56.9601  41.6712
O  91.1244  39.7300  41.0143
O  68.4943  55.7682  58.4874
O  78.4674  49.2367  62.9294
O  87.7864  49.8967  60.2809
O  82.4188  40.6072  62.5063
O  74.5012  40.9222  70.5571
O  81.7711  42.9075  60.4807
O  83.4467  40.0023  60.1620
O  86.0408  42.1534  71.4772
O  88.6039  47.7098  76.6079
O  88.2148  46.2753  64.7933
O  65.5550  56.2382  73.8941
O  81.4483  47.4802  65.9377
O  87.1170  52.8923  62.5831
O  86.2962  39.1693  76.1706
O  81.5488  51.1738  68.7901
O  78.5348  40.4664  77.0139
O  66.8250  43.3417  90.4275
O  87.8692  40.4473  94.8320
O  90.4880  56.4300  79.5155
O  88.5085  39.6905  80.5016
O  80.6628  54.2858  84.2931
O  83.2398  39.9704  83.7086
O  89.1518  56.6906  90.8939
O  71.4927  50.1317  100.9270
O  75.5234  48.7604  108.5350
O  73.5622  45.4738  101.7300
O  71.8478  53.2280  99.0573
O  78.7217  46.8602  109.4060
O  81.7371  44.2630  117.0130
O  86.6036  54.0911  114.9970
O  83.2812  43.0743  103.0530
O  81.3979  38.4707  116.6900
O  88.5791  40.5595  113.2950
O  73.5941  39.8118  105.2880
O  87.9968  55.9333  102.2650
O  70.1737  51.1434  106.5050
O  68.7974  44.6227  103.4280
O  89.0265  38.4352  99.8148
O  76.4399  58.2793  106.2480
O  80.0870  51.8541  110.1110
O  65.8682  48.4075  101.0930
O  79.4252  39.0400  118.4460
O  91.0797  59.9392  53.6526
O  73.4774  73.3260  43.5910
O  88.0133  60.5490  55.2363
O  76.8409  61.6807  44.8777
O  65.4721  65.1624  47.8608
O  72.0831  72.9212  55.5709
O  79.3634  67.7308  48.2692
O  86.1939  64.5773  46.2883
O  77.8814  62.9582  56.8662
O  72.9704  68.6839  44.7609
O  80.1526  72.7635  42.5331
O  91.8249  62.4462  58.3140
O  76.0981  59.8922  50.2564
O  90.1953  75.3626  45.6926
O  86.0286  64.5911  62.4812
O  66.4238  66.7670  65.5917
O  84.6295  69.5568  64.9430
O  77.6910  73.1198  72.4447
O  75.0500  64.8718  64.1559
O  65.3885  69.2843  70.7944
O  83.7554  60.1431  62.9682
O  80.7367  72.4609  77.1692
O  90.7136  72.6410  61.7172
O  91.6802  59.3916  64.1075
O  68.1751  64.5897  67.5727
O  70.4399  69.1592  69.1307
O  65.7633  74.7711  64.4674
O  90.3812  70.9966  76.8625
O  85.3012  61.3974  83.6284
O  70.4801  67.0555  82.6623
O  76.1267  64.6619  96.1906
O  81.3472  66.0612  87.2087
O  76.7556  73.9891  79.3954
O  79.5523  75.5070  88.7962
O  67.0986  63.7682  78.7131
O  68.3533  64.4969  82.7286
O  77.9459  67.9230  83.4608
O  67.1004  76.7720  86.1201
O  70.6012  70.1301  98.5231
O  88.0442  70.5946  81.9806
O  65.3572  66.9597  78.8208
O  67.3770  65.6406  115.5270
O  78.0362  72.5296  102.0870
O  85.9372  62.7245  109.9440
O  65.1198  65.4872  107.2190
O  66.2049  60.9938  108.9400
O  79.0751  66.7125  116.0150
O  82.3455  65.9977  103.8920
O  83.2055  75.2281  104.5420
O  68.7605  59.9715  108.3760
O  71.5477  60.0820  100.6080
O  76.7589  74.7803  101.5850
O  74.7185  65.1394  113.5000
O  84.9238  72.1191  117.6720
O  82.6693  69.0498  113.0420
O  81.9203  64.4192  106.6180
O  87.8483  76.4520  118.3710
O  79.7183  58.5932  104.9200
O  83.6782  67.6793  118.5710
O  89.7662  83.7746  39.6842
O  85.9830  92.1535  43.3699
O  81.5364  89.8566  49.7857
O  87.1609  96.0596  50.9157
O  82.7290  79.7769  45.8393
O  67.7716  84.4356  46.8662
O  83.9139  93.9774  51.1240
O  88.1373  86.0576  45.6817
O  73.0973  85.8955  53.5632
O  86.0567  97.1667  56.2857
O  73.5122  89.6112  55.8747
O  83.9435  82.9703  74.8458
O  79.0032  92.5383  60.8582
O  87.3953  83.8855  61.4760
O  88.8021  83.0748  63.6896
O  82.0611  91.8953  70.1415
O  89.1380  97.5461  68.6408
O  67.4690  90.8909  66.8788
O  79.8664  92.3275  75.1251
O  88.6721  85.8689  62.9560
O  90.1061  93.3931  77.4165
O  67.7724  78.8416  70.7665
O  88.4115  91.9194  79.2370
O  82.8715  79.3693  95.1844
O  88.6162  82.0285  89.1974
O  80.4917  90.1060  80.9554
O  74.8520  84.2589  93.9266
O  77.7629  84.4362  94.4763
O  82.8582  87.9018  91.7455
O  67.5071  85.0294  87.5383
O  66.9521  82.1204  83.0083
O  68.8796  78.9537  95.3764
O  65.8345  98.1198  91.0040
O  86.9308  83.7863  84.3047
O  85.3644  93.0086  92.9624
O  91.6296  89.0089  94.3864
O  67.2195  82.3897  88.5613
O  82.1584  95.1847  86.8584
O  68.1988  92.9272  93.4117
O  79.6722  81.0851  90.1121
O  67.4041  85.0183  79.6870
O  80.1923  88.3617  98.3194
O  86.0024  78.9368  117.0060
O  83.9209  97.4517  109.5720
O  80.1006  87.1959  102.4320
O  76.5988  88.0026  112.8020
O  85.7879  84.9491  102.4860
O  67.4837  95.3475  118.6950
O  87.4761  94.9708  112.2960
O  70.0153  84.3919  111.8390
O  89.2038  80.7312  116.6440
O  89.7995  96.3928  110.4790
O  86.4964  112.1500  40.9246
O  89.2039  107.0090  49.1815
O  87.5491  104.0640  40.0676
O  91.1199  114.7690  53.2229
O  79.0565  98.6314  58.1556
O  78.5272  113.1480  40.4391
O  85.4821  109.5360  45.5469
O  85.2116  118.5170  42.9973
O  76.0382  102.4790  56.4835
O  68.8412  116.3350  50.2143
O  79.1909  106.2720  55.9084
O  65.5848  109.1560  52.0999
O  71.6058  105.0420  55.0037
O  67.9007  110.1290  54.8480
O  75.3030  108.6080  57.2561
O  65.9026  101.1130  52.7562
O  80.6081  103.0820  54.3644
O  72.8998  111.1740  39.3820
O  79.6909  110.1320  56.3210
O  75.3208  112.4950  47.5811
O  87.5785  105.9670  54.2741
O  79.1483  106.7200  69.7195
O  71.8560  113.5300  60.7129
O  82.0722  104.6080  61.1744
O  78.0107  116.6940  66.1653
O  87.9053  117.0840  68.1672
O  89.7922  102.9390  66.7542
O  87.2259  100.5830  62.0443
O  88.6948  108.3340  62.0193
O  87.9252  101.0880  77.9467
O  78.7448  110.3330  58.9115
O  69.0379  107.8080  63.7628
O  67.2292  116.2880  66.7300
O  88.8148  106.4000  98.1229
O  71.1755  103.8460  93.6297
O  66.6697  100.8980  95.1969
O  91.1806  100.2310  95.8315
O  86.4602  107.2200  89.6140
O  78.3792  113.7400  91.5206
O  81.2278  113.2500  84.6678
O  81.6330  109.5100  89.6845
O  87.0115  102.2530  95.5828
O  66.3510  117.7080  96.7949
O  84.0264  114.1990  96.3645
O  88.1074  108.8860  94.2550
O  80.9697  113.3130  96.0370
O  81.5617  107.3060  81.6445
O  77.2204  111.2630  98.5241
O  79.9835  105.9580  110.2030
O  70.7867  101.0130  117.6050
O  88.9129  114.3190  101.8840
O  66.9172  102.5760  105.1880
O  80.4772  112.4530  104.0370
O  86.4710  116.4810  107.4270
O  71.0590  107.5370  103.8400
O  82.2320  113.7310  114.3130
O  87.5473  111.8880  101.3150
O  88.7481  108.5740  115.1980
O  79.5804  108.5130  101.4870
O  74.5312  109.8930  118.4710
O  66.7382  113.3060  102.7780
O  77.8388  105.9900  118.0750
O  84.7974  110.9740  105.5880
O  82.6093  117.2200  110.6060
O  83.1137  109.2440  112.4660
O  83.3832  108.0080  117.3340
O  85.1915  111.1700  108.6030
O  75.1127  109.4130  106.1610
O  76.4961  113.2930  105.3610
O  85.7746  118.9130  100.5470
O  86.8268  109.7350  104.4720
O  83.3468  117.4830  118.6760
O  101.0630  41.5333  56.2225
O  98.5597  40.2445  49.7810
O  109.5760  44.2421  54.3115
O  91.8875  38.0947  38.9912
O  101.0590  45.6357  47.1624
O  100.7080  51.1639  53.8544
O  103.7080  40.6221  52.6519
O  92.4391  48.1018  58.2404
O  96.6226  41.4402  48.2787
O  94.9363  47.3723  69.6806
O  104.6630  45.8036  71.5032
O  111.1580  44.5660  68.6482
O  115.8130  39.0793  63.0960
O  104.3980  39.3869  66.2286
O  116.1760  43.3295  67.8441
O  106.0230  44.4562  66.7742
O  117.1700  56.3797  67.2138
O  104.2840  49.6689  58.7955
O  100.6910  42.2203  69.6186
O  109.8020  54.0261  69.2562
O  99.5442  44.4851  70.2326
O  96.6015  58.0922  62.9316
O  98.8613  50.9072  58.4613
O  101.6260  39.3216  85.4724
O  97.9033  46.2269  85.3139
O  98.1941  42.1395  88.0763
O  101.1790  56.6903  90.6282
O  112.8240  54.2941  84.0508
O  112.2380  54.4861  86.9327
O  112.0570  46.7966  82.9921
O  109.1800  49.8932  81.0439
O  108.8990  57.5002  88.9650
O  112.6730  40.6193  80.1728
O  107.1090  54.5026  85.2181
O  101.5370  45.1551  79.7428
O  94.4761  54.9704  86.9997
O  101.4230  54.3015  89.5898
O  102.7150  58.0919  94.7152
O  113.3020  57.9287  96.4821
O  92.4844  40.4690  110.9860
O  92.1684  53.2119  110.8580
O  99.3035  53.8051  108.8440
O  95.6998  42.8850  109.1010
O  92.8285  38.1689  114.3080
O  97.2916  53.9603  99.7080
O  104.3160  44.7305  103.7850
O  97.4285  39.0543  110.4220
O  94.8639  52.5885  111.7010
O  95.9133  54.4955  113.2340
O  113.5490  54.2944  115.2880
O  103.7160  48.8166  105.3690
O  110.5550  72.5772  44.1368
O  108.3260  63.0794  40.9640
O  110.6780  70.1275  43.1007
O  105.3420  59.8662  48.2645
O  103.3120  64.6850  42.5743
O  102.4530  65.1484  54.2832
O  116.7590  66.3399  47.4770
O  99.4072  65.6626  54.9916
O  105.6580  60.7106  45.6468
O  115.6270  76.2600  43.3528
O  112.1570  65.0262  45.5812
O  115.0160  62.1660  57.9804
O  118.8700  70.0243  53.9776
O  109.6400  66.5079  76.4433
O  96.8552  63.5512  58.8089
O  102.8260  60.8905  67.8603
O  107.0350  61.0133  68.3056
O  100.5900  64.8989  70.5116
O  97.4153  69.3237  63.8872
O  101.4910  63.7202  72.7414
O  114.6250  74.2033  76.4703
O  118.7580  74.0763  64.7381
O  111.5100  69.2180  81.6988
O  109.7680  64.7914  91.2298
O  107.3250  76.2451  89.1037
O  105.1600  60.5377  88.4233
O  96.3903  66.9695  87.0572
O  96.8312  61.6634  89.4826
O  93.3827  64.5904  91.4487
O  98.2516  58.8508  85.9958
O  94.4726  68.4297  95.8242
O  103.4400  62.1245  89.7131
O  99.6913  67.1752  95.7600
O  117.6480  75.8310  93.8931
O  106.5900  71.0674  95.9676
O  107.4710  59.7411  93.1593
O  94.5386  60.8501  80.9206
O  115.2360  77.4221  97.9073
O  93.7274  75.2336  103.3470
O  113.3970  77.6140  106.5560
O  96.3718  71.3298  99.5079
O  96.3979  59.9649  106.1990
O  110.2060  65.4047  113.0690
O  99.6023  58.6119  101.5100
O  116.9810  66.5397  99.3317
O  98.1210  67.5325  117.5570
O  99.4838  61.6585  103.8930
O  100.9190  73.6265  115.5520
O  98.4572  83.8054  40.1192
O  97.6862  82.0565  38.1911
O  93.6802  79.6704  42.3487
O  93.2849  89.5630  49.6848
O  108.9570  88.1376  52.6038
O  107.6340  86.5067  43.0466
O  111.6540  97.1589  44.2322
O  98.9089  82.9718  45.3928
O  99.6715  96.2693  40.2854
O  118.7480  79.2131  44.7749
O  97.5313  82.5993  54.2705
O  96.8928  98.2740  66.1131
O  98.8626  83.4882  65.9520
O  95.1365  88.2252  69.8255
O  96.2116  90.3899  65.7154
O  111.6590  97.9125  77.9181
O  94.2406  97.3111  76.1643
O  96.6125  88.5453  91.3282
O  97.3878  83.3536  90.5824
O  110.1550  89.7272  83.3728
O  108.6280  91.8047  84.0364
O  104.4210  94.8589  79.1692
O  106.6110  91.6418  86.1631
O  103.5350  89.9887  91.3432
O  101.8230  94.2761  89.4495
O  115.0620  97.7490  98.2074
O  99.3207  96.7868  78.7655
O  110.2270  83.4855  103.7510
O  93.9849  81.3042  106.6480
O  99.8129  84.6275  112.6030
O  118.0090  81.6494  104.1940
O  114.9160  97.7949  107.1590
O  98.6391  87.4181  117.0700
O  102.1530  98.4219  110.3660
O  107.7770  87.3586  104.5700
O  99.3213  81.1347  112.8080
O  105.1450  93.4033  113.5500
O  110.6050  98.1841  105.4380
O  118.5350  105.1400  42.6049
O  112.1100  103.6670  42.7438
O  94.6497  115.4290  42.0633
O  117.3960  108.3330  40.7538
O  93.2450  101.7290  56.7185
O  110.3190  102.7360  49.8773
O  106.8650  104.4120  51.6964
O  117.3580  102.5240  48.1997
O  112.7180  111.5460  51.2279
O  113.2000  109.6040  43.5218
O  104.6070  103.9980  41.8898
O  97.5413  112.6520  46.8792
O  96.6843  108.2160  42.8869
O  116.4850  113.0500  45.1969
O  112.9810  103.9830  53.9053
O  105.4960  102.3840  55.5644
O  117.8420  99.6015  43.2048
O  105.3850  102.3070  40.0284
O  94.9446  111.9770  47.1053
O  96.5245  111.6500  40.4182
O  109.2890  116.3340  57.0344
O  105.5380  100.0790  53.7063
O  93.9908  117.1230  55.5851
O  112.5350  113.7460  45.3285
O  118.7360  100.1580  48.3581
O  114.0210  107.8860  66.4406
O  92.0900  114.7670  67.2512
O  108.3310  108.8400  63.2660
O  96.6244  110.1790  59.5419
O  92.2414  99.8789  75.5404
O  113.2990  103.5770  62.5797
O  117.2740  112.3560  68.5852
O  94.4448  115.0390  76.8658
O  108.0570  104.8540  60.5919
O  96.6597  114.3960  72.6517
O  105.0290  115.3240  58.9038
O  101.3700  103.4050  63.6575
O  99.5456  116.4240  66.4983
O  97.1756  101.0840  64.3921
O  96.5511  114.8930  60.4789
O  100.3860  114.6920  63.8199
O  117.1220  116.5510  59.1359
O  106.7500  115.8890  61.4128
O  113.1140  118.4130  62.5702
O  91.8669  102.4730  72.6709
O  107.5720  99.1680  83.2693
O  105.4520  100.5170  94.0180
O  114.0460  103.4180  83.7762
O  102.6380  108.9330  78.6738
O  111.7840  107.8290  91.4586
O  102.6690  116.0550  88.1220
O  114.8780  101.1780  88.2725
O  102.9460  107.4620  80.9679
O  94.0880  106.6650  85.8194
O  98.6592  102.0610  93.0801
O  99.1752  98.9738  96.1386
O  99.4649  115.8050  97.5792
O  110.9330  99.5582  79.9868
O  100.6580  110.1260  98.0565
O  106.8140  108.6840  101.3680
O  105.7430  100.3020  102.3540
O  97.7189  104.2510  100.7290
O  101.9110  111.9240  104.9510
O  102.8910  117.1220  101.8360
O  103.5440  100.8650  99.9229
O  115.1490  112.4820  101.3090
O  102.2490  108.7660  99.8219
O  96.5605  109.2150  113.6550
O  117.2990  103.3510  103.1360
O  98.8398  115.3470  113.0270
O  102.6260  117.4470  106.8970
O  102.5330  98.9717  114.8300
O  94.6442  107.8340  107.4500
O  118.5270  109.9240  106.9740
O  107.1590  102.4660  118.8250
