635
Terminal OH atoms
O  34.9236  38.8570  42.6633
O  41.2225  43.5718  32.6627
O  43.9432  40.4529  46.6542
O  33.0395  43.0399  42.2043
O  38.0816  41.7783  47.9947
O  47.1371  35.1389  44.8975
O  49.0216  42.4872  43.1520
O  37.8336  45.7111  46.1888
O  42.1189  39.6537  42.8610
O  45.3322  33.5628  51.1388
O  50.5548  34.9757  65.7019
O  33.4339  35.4595  66.4163
O  52.6181  47.2351  62.5136
O  50.4669  39.7311  54.6881
O  45.3574  40.7869  65.4130
O  34.9175  44.4094  65.7891
O  44.9529  35.5495  67.6265
O  44.2892  48.3771  53.6571
O  44.7962  35.4740  62.1204
O  35.6647  37.0234  66.6549
O  45.8104  38.7021  67.8634
O  43.5674  44.2741  57.2399
O  53.8041  32.8430  67.8887
O  56.1694  38.5671  59.2643
O  42.2879  43.2861  59.3641
O  33.7355  48.8244  60.4256
O  44.0868  48.1279  59.9138
O  37.9134  43.2791  55.4056
O  39.5203  35.0306  57.2247
O  32.6815  34.1817  52.5222
O  32.5752  42.8762  67.5798
O  49.9902  45.4519  72.2997
O  44.0402  49.9387  76.9608
O  34.9010  42.5129  83.1948
O  52.3026  34.8163  68.9559
O  44.6096  33.9122  81.3304
O  38.7647  50.0025  84.8714
O  55.9409  35.6051  72.1378
O  53.5333  46.2245  83.4720
O  44.9216  41.9495  84.3885
O  46.1352  41.3374  82.1101
O  51.7190  44.6394  68.6257
O  42.9373  37.0090  97.2576
O  45.6707  34.1384  99.2495
O  32.5057  48.7741  91.1497
O  33.9457  38.0121  89.1196
O  52.8272  32.5661  97.0063
O  53.0764  35.2881  101.9190
O  32.4140  45.2120  90.2481
O  35.7680  37.6314  95.4042
O  47.6367  47.2229  87.4427
O  44.5620  49.8930  97.6512
O  46.1427  36.0070  96.8348
O  44.5089  46.8297  96.2537
O  34.5988  32.9412  88.7797
O  32.5595  45.5063  105.0670
O  48.3638  55.7761  39.3978
O  51.9331  54.7314  35.8524
O  53.4634  56.6070  46.8552
O  51.8905  63.5952  39.7910
O  36.1358  66.2841  36.8775
O  32.6802  65.0006  55.4546
O  37.2085  64.5898  66.7980
O  39.0730  64.1843  58.3690
O  32.5543  62.5499  50.8474
O  42.9781  55.0524  66.9609
O  49.2369  63.4517  61.6841
O  43.5233  65.3761  64.7049
O  49.5694  55.3917  57.9965
O  52.6510  67.4795  50.6066
O  52.2384  53.2750  80.0470
O  43.8162  57.4780  81.9530
O  46.8672  59.4385  79.3878
O  55.7006  66.9631  74.1111
O  45.1206  65.8512  84.0363
O  42.5242  63.9535  82.0049
O  35.2090  57.3601  70.8406
O  50.8653  56.6677  81.6051
O  46.7986  60.4945  76.9593
O  54.2484  52.1887  85.6307
O  34.6519  63.2698  84.8462
O  39.9523  67.1218  73.3734
O  45.6345  50.6281  82.1330
O  43.5057  51.0005  99.8469
O  53.1740  52.8751  104.0920
O  38.5118  56.4276  96.5786
O  36.3590  60.6145  99.9531
O  50.1046  57.9039  103.6360
O  47.2626  68.3719  87.9211
O  40.4728  66.6975  94.1134
O  32.6055  55.3695  90.4766
O  49.6887  62.2603  103.6780
O  37.3655  63.5248  91.7125
O  34.1705  56.7303  103.6360
O  46.0940  56.3927  102.5660
O  39.2275  70.1619  49.6147
O  38.9490  70.5920  40.5521
O  54.7091  85.5462  47.7595
O  35.0980  75.5164  44.6576
O  52.1049  72.6334  47.6849
O  43.8545  85.4669  38.5688
O  50.9878  70.4490  45.8519
O  49.3888  79.5177  49.9631
O  49.2245  70.2434  48.6212
O  41.0181  82.8871  37.7579
O  49.4501  73.9761  41.7650
O  39.3301  75.9606  44.1605
O  47.5762  85.7131  52.8502
O  40.3896  78.0745  57.3050
O  53.0448  74.2583  64.1767
O  51.8786  82.3459  51.5445
O  35.4269  78.9105  51.4876
O  48.6614  79.5254  58.9249
O  42.8758  77.2500  57.0436
O  54.9756  79.1954  60.1553
O  45.2506  73.2192  52.0481
O  48.3511  84.4980  66.4804
O  50.5416  68.4338  55.3097
O  45.5749  78.7265  52.6397
O  37.3331  82.8630  54.0073
O  39.4244  76.8961  76.1397
O  44.1298  76.1455  81.4774
O  41.1964  75.9869  74.3072
O  45.7777  74.4608  69.8745
O  34.8641  70.2778  79.2840
O  47.2256  78.2230  81.5349
O  35.3427  81.1261  98.4971
O  46.3909  72.6886  102.1790
O  32.7338  78.8079  99.5162
O  52.6580  72.2784  92.5391
O  44.8344  72.2703  100.0280
O  35.8655  72.4226  100.8340
O  35.6874  69.9221  88.2424
O  55.5215  76.9433  89.3431
O  53.6586  81.4565  99.5215
O  51.2715  82.8694  104.2410
O  35.9376  83.6092  89.1408
O  52.4236  84.8175  102.8370
O  38.0023  72.6070  104.5820
O  52.9171  82.2491  93.5839
O  37.2484  74.1676  96.2694
O  47.4071  72.8384  99.7259
O  51.0190  86.8119  104.4820
O  37.1445  72.1095  89.7909
O  50.7631  82.8841  88.3035
O  37.2589  75.7542  88.2792
O  45.1279  73.4076  96.7273
O  34.5926  75.8831  87.9130
O  32.3067  79.8268  97.0886
O  46.3587  82.2235  104.6450
O  34.5889  68.7450  97.0623
O  52.3554  101.3790  36.3559
O  39.8116  89.5706  36.5763
O  56.0528  89.5727  35.9347
O  52.2722  101.9540  45.3224
O  55.5746  97.1301  37.6785
O  39.4063  96.4979  47.7460
O  55.1186  91.2966  34.0271
O  36.5631  103.1440  47.3630
O  38.3962  98.5031  35.5026
O  54.1102  89.4730  42.2077
O  47.3634  100.0120  32.1306
O  45.0670  90.1486  63.0626
O  38.4074  89.7862  64.6289
O  44.6414  92.1630  56.7430
O  46.5639  87.0241  66.8281
O  51.8412  97.2664  50.9455
O  43.2733  96.6329  53.2831
O  39.0791  90.4972  53.3979
O  39.2528  96.8243  50.5001
O  50.8938  88.2291  54.2816
O  37.7151  103.1130  54.0458
O  49.9556  96.5931  62.8365
O  47.0438  93.8380  58.7530
O  50.2734  96.8845  60.1973
O  39.5311  97.3523  75.6573
O  42.1771  94.5620  77.1786
O  51.6510  102.7140  81.2216
O  43.2120  98.4764  78.0666
O  49.8575  89.7112  78.6177
O  42.4009  101.4080  83.8181
O  55.4903  96.5311  72.0019
O  37.0051  91.7105  82.4566
O  50.8867  100.8020  79.4320
O  53.4169  86.9006  83.1339
O  45.1302  103.1560  76.2257
O  48.6307  104.2190  76.2354
O  47.2378  87.3953  99.4170
O  37.4363  89.8771  98.3961
O  49.7270  102.5470  91.1989
O  44.2170  97.1589  88.3053
O  51.7220  90.2916  96.2847
O  38.5555  90.6663  103.4950
O  34.9159  94.4619  87.3755
O  39.6423  100.1220  95.6258
O  52.0325  88.4476  92.4728
O  46.3900  92.7758  92.8008
O  47.6379  101.4090  101.7340
O  50.0617  100.0270  92.0736
O  48.4486  100.1640  95.7641
O  46.8542  97.8502  93.5336
O  54.8433  103.0940  100.6290
O  47.3866  100.9070  90.0488
O  42.8438  93.2769  100.8210
O  36.8578  95.1115  98.8648
O  51.7670  93.2148  97.2061
O  43.6020  101.4100  100.0040
O  38.5052  93.2865  103.5940
O  34.9785  98.8189  92.3112
O  68.3959  44.5222  36.4980
O  80.3137  36.1041  32.1667
O  57.5277  43.4872  43.7207
O  65.3191  36.5817  49.5776
O  64.7901  33.4712  44.2005
O  70.0144  43.6871  32.8402
O  80.0191  42.9145  32.4300
O  76.6747  44.6364  32.1934
O  67.5241  50.0681  44.2456
O  80.3934  45.3113  34.9190
O  80.5886  47.7223  48.5949
O  77.7102  32.5589  31.8699
O  59.5635  34.6472  54.4385
O  70.0891  33.3210  50.6235
O  62.4299  38.2302  52.1860
O  76.5882  33.2647  61.6332
O  63.9459  36.0737  54.9488
O  62.5106  33.5808  62.7023
O  62.0482  45.7380  51.5242
O  62.4609  40.5246  57.5099
O  72.0217  33.4041  59.0574
O  58.4084  38.5915  50.7492
O  80.0887  38.9051  67.8246
O  56.4974  36.7241  77.5963
O  74.0244  32.4045  76.3849
O  77.6706  42.3408  75.8744
O  80.0031  40.9338  77.7994
O  79.4290  49.8269  77.8704
O  59.9344  44.8346  82.3276
O  59.0920  47.8442  76.9471
O  70.1851  40.8158  75.6194
O  73.8173  47.9882  85.2441
O  58.4348  49.5516  78.9648
O  59.0504  50.1975  85.3795
O  74.8237  40.9697  92.1640
O  65.2819  33.7322  99.5656
O  75.1871  31.9315  96.4740
O  75.6370  41.7294  96.6805
O  74.9448  34.5153  95.7754
O  66.9413  33.4463  90.0565
O  63.1204  33.7841  90.1492
O  69.6802  35.6742  98.3799
O  66.1640  34.2511  102.4100
O  69.4928  46.0699  96.2619
O  80.3858  34.8805  99.7721
O  74.6505  44.0597  99.0351
O  71.0172  48.3021  102.0230
O  71.2538  42.2650  97.9177
O  71.9398  46.8255  89.1553
O  72.8727  51.5678  40.4190
O  67.7851  59.4801  49.1608
O  70.4367  66.2507  32.7816
O  76.3209  64.9542  41.1183
O  58.3133  61.5205  41.0569
O  60.5838  65.2825  44.9559
O  69.3280  66.9112  37.8254
O  76.8057  64.5648  44.3976
O  70.0258  52.6743  32.7130
O  61.2367  59.5014  32.3130
O  62.0317  60.0456  47.4736
O  73.3656  57.9893  40.7967
O  75.8774  53.8693  40.5899
O  58.8912  55.9652  52.1682
O  66.5241  52.4944  55.8750
O  72.9081  56.0043  52.7315
O  74.1683  54.5349  54.9330
O  79.1376  55.0381  65.2740
O  76.7917  61.0257  65.0279
O  57.5645  64.4877  52.1009
O  64.4732  56.3333  66.4376
O  78.6204  65.1287  58.5334
O  68.0607  56.4436  72.5022
O  60.6994  54.7831  70.4356
O  79.6799  65.3048  73.7155
O  64.6169  59.5597  78.0519
O  69.1103  55.6626  76.5733
O  73.6952  61.1599  73.5879
O  67.8872  63.3067  80.8025
O  71.1116  60.1053  72.7229
O  72.5580  64.2145  81.5183
O  60.0511  57.1626  79.0329
O  66.0882  51.8659  76.8013
O  67.6280  50.2288  81.9571
O  76.4315  50.4702  92.2488
O  60.4727  67.3825  104.2930
O  73.7130  52.4260  104.5240
O  71.8144  67.7217  101.1820
O  62.1615  60.5829  96.7630
O  63.9771  60.0459  98.7404
O  71.5073  58.6694  92.1887
O  57.1805  68.3581  99.9848
O  67.8740  86.4432  32.8341
O  63.8425  73.1565  41.1369
O  59.7813  72.6637  43.7508
O  64.7853  79.7830  39.1197
O  56.2608  82.4908  35.0881
O  75.6091  85.9087  40.2367
O  69.7817  75.6503  49.0815
O  65.4684  77.7390  41.1904
O  67.1294  73.6660  46.9379
O  57.0452  81.9319  45.8497
O  63.9900  83.9006  35.5832
O  70.0729  84.8646  40.2724
O  64.3165  80.6232  36.5899
O  57.4798  73.4352  46.5135
O  66.0787  85.7710  40.9507
O  77.6245  73.6975  33.5362
O  63.4571  69.1562  43.6411
O  71.5441  82.5084  31.9887
O  72.4514  83.1099  60.0286
O  76.8236  72.8436  52.6112
O  75.1763  75.7701  52.3816
O  64.8070  83.0936  67.6854
O  57.1549  81.0828  59.1497
O  68.2078  86.1388  57.3880
O  68.5636  86.4968  50.9803
O  70.4823  82.3317  55.0165
O  79.9721  69.4898  60.7525
O  71.0029  76.7358  63.9025
O  60.4756  83.6344  56.9248
O  58.3381  73.7124  57.6255
O  64.6010  77.1452  54.2879
O  61.6847  85.9913  56.2492
O  63.3872  74.3081  81.5136
O  58.1060  79.9757  78.8510
O  58.5370  70.1004  76.1469
O  66.5949  69.4005  68.7212
O  69.0102  74.0033  76.1475
O  75.5721  76.5213  85.6976
O  57.5723  77.8172  74.9840
O  66.0005  69.6880  75.9392
O  68.3920  80.1058  78.1627
O  75.2138  70.9895  77.1729
O  69.1527  83.9455  76.8827
O  76.1356  83.1748  74.0586
O  68.3789  69.6607  83.4982
O  67.4859  78.8047  74.7777
O  63.0388  70.7579  81.0991
O  57.1457  86.3688  83.4227
O  75.4604  84.6318  68.5610
O  72.8209  74.3040  89.8282
O  79.9613  73.4559  100.7840
O  70.3624  70.3257  98.6872
O  64.5981  71.7028  88.6251
O  57.5859  83.5975  90.6140
O  57.8305  69.5088  88.7649
O  64.7390  68.9644  98.6681
O  62.4012  76.0313  94.0578
O  72.8236  75.3779  104.4900
O  73.4953  98.3916  36.7179
O  70.1737  104.2360  36.6968
O  64.3971  89.5986  35.1438
O  60.8579  102.8720  44.1430
O  72.4114  104.2630  34.3546
O  57.6231  98.6645  45.3947
O  74.1242  102.3410  43.8118
O  64.0321  96.4207  40.1793
O  60.4431  91.0810  45.1135
O  73.6116  92.1942  40.8706
O  57.2193  100.6980  32.4056
O  58.5442  91.1829  42.5485
O  65.5642  93.1278  37.0126
O  72.5295  102.8310  49.7676
O  64.5963  87.7361  54.6453
O  56.7015  104.9950  62.5524
O  71.7569  87.9528  60.2928
O  72.8887  94.2102  54.8336
O  65.0671  89.9735  53.2652
O  57.9112  102.7140  59.7101
O  57.0414  94.0483  58.0833
O  62.9277  100.8440  52.0408
O  58.5983  97.6492  65.1025
O  61.4875  95.8229  65.9133
O  78.4857  100.3250  63.3265
O  64.1410  104.0610  53.5743
O  57.0242  103.6910  50.9886
O  63.5188  104.3150  62.8686
O  77.6618  102.5610  64.7262
O  58.0953  91.3751  51.3320
O  80.1611  93.8452  50.7739
O  57.6853  89.0328  54.8823
O  66.1937  93.7657  65.9693
O  79.7249  101.0000  54.0809
O  70.4112  93.4980  72.0908
O  61.1856  93.9573  84.8767
O  70.9380  94.7766  84.2274
O  76.9725  87.4269  69.2863
O  60.5669  93.8737  69.4705
O  59.4044  89.2737  79.2830
O  68.9788  88.3970  70.9497
O  59.2202  88.4924  84.3438
O  57.4470  92.3176  74.6552
O  58.9047  101.5480  68.8477
O  59.7757  100.6300  85.0456
O  65.3329  103.5160  74.2764
O  79.8239  105.0980  78.0104
O  68.3940  104.1960  84.0611
O  72.5094  91.0281  100.2800
O  78.2796  93.1504  91.5385
O  79.3761  100.8120  104.1590
O  59.7547  88.7058  96.4890
O  68.6798  90.9774  104.4720
O  78.0045  95.5209  87.3670
O  65.3839  93.9449  90.2084
O  69.9552  102.0090  89.9417
O  57.5272  90.8920  103.4540
O  61.0886  87.2576  92.6371
O  64.6172  101.8550  98.3529
O  63.5905  88.7865  103.2830
O  64.2884  98.3058  100.9310
O  74.6733  95.6822  104.2350
O  65.3078  91.8752  87.9868
O  76.7898  90.9405  88.3420
O  69.5152  87.1385  103.9650
O  80.6006  94.6100  102.8110
O  83.5166  34.2087  44.8340
O  102.5670  42.6209  44.5695
O  92.9348  43.7899  37.1676
O  98.3816  36.5080  39.6368
O  102.6100  47.8577  34.8889
O  103.3370  50.1908  33.5392
O  102.6100  45.6435  40.8606
O  94.0817  47.0105  37.0026
O  86.0840  39.2299  34.5147
O  104.6040  49.3773  45.6336
O  100.0160  35.6307  63.7441
O  89.2471  46.5776  63.7316
O  81.5094  38.7488  60.5808
O  101.6510  33.1753  56.8461
O  83.8709  47.8359  64.6980
O  85.9669  43.6570  58.7417
O  103.7080  32.0686  59.3143
O  92.2550  42.5117  64.5731
O  89.8695  35.5807  58.4328
O  90.7896  37.4385  50.8843
O  94.7001  35.2202  67.0851
O  82.6023  36.8156  58.4031
O  98.0244  40.2218  67.8885
O  84.1639  34.8372  68.3567
O  81.7349  37.5216  71.0898
O  82.9093  41.8355  75.2142
O  98.6954  32.6657  82.6491
O  86.7708  39.7232  78.1224
O  87.8466  33.7246  72.9591
O  91.5801  36.4239  79.2712
O  102.6830  48.1459  78.8518
O  100.1320  44.7176  69.5493
O  91.3789  34.9874  68.9665
O  91.5030  48.0181  81.5958
O  98.7546  49.1352  71.8885
O  100.2750  37.8282  72.7532
O  87.6587  45.9695  69.3158
O  85.9408  38.8294  91.1297
O  96.5971  42.6205  87.6849
O  99.3876  37.1086  94.4392
O  97.2738  35.1672  99.6967
O  97.1650  39.2549  98.4164
O  89.0259  39.2342  89.1492
O  101.8550  48.2937  104.1480
O  103.2810  38.8192  90.1180
O  81.7341  42.0260  92.0127
O  104.8290  36.8642  99.3418
O  95.5589  55.4636  45.2739
O  82.5343  57.3665  35.3755
O  101.5440  56.4503  34.2592
O  98.0339  50.7081  42.2312
O  90.0093  65.1676  35.2374
O  98.5725  65.2556  42.5013
O  92.6831  50.4290  47.8737
O  103.8970  51.5116  49.5804
O  100.3320  66.9662  34.0545
O  97.4245  66.7709  49.9360
O  81.2007  65.8255  41.6342
O  99.3151  61.9953  51.0614
O  104.0770  63.5109  58.6073
O  86.1833  52.4389  62.7097
O  95.4915  64.4680  64.8368
O  85.1974  57.8990  64.7280
O  104.6460  51.4221  66.2200
O  95.8984  67.5772  61.8710
O  103.9210  66.2407  65.1703
O  100.6750  65.0096  65.9159
O  88.3553  58.2958  67.1201
O  88.1972  55.9293  53.8222
O  87.5497  51.0061  58.4958
O  82.2305  55.1202  60.8798
O  88.3097  54.0211  59.2952
O  86.2477  61.7099  53.0767
O  98.5616  57.4042  62.5637
O  96.2715  60.3277  65.7870
O  85.1222  50.4781  74.7489
O  82.5927  55.4535  78.6571
O  100.3690  66.0979  81.4638
O  100.0380  61.5505  84.7197
O  98.5657  61.7558  75.9134
O  100.0920  52.1116  77.7734
O  92.1451  52.5141  69.6091
O  91.3902  62.1043  77.5631
O  95.9480  65.5061  70.9451
O  81.2096  62.5384  71.5444
O  82.0290  65.0169  72.2577
O  92.6284  56.9397  86.0855
O  102.2380  65.4863  87.6212
O  100.5630  53.0702  96.1280
O  86.5239  58.6345  96.0929
O  98.3522  58.0344  94.0656
O  102.8240  67.8780  95.2131
O  94.8911  62.2610  100.7460
O  83.8971  55.5817  96.4336
O  91.7256  64.2550  94.9338
O  104.4010  54.2634  94.4354
O  97.0564  63.7488  101.4390
O  85.1547  61.0799  93.1859
O  87.5583  72.9876  43.9759
O  97.8360  72.6702  40.3813
O  93.2864  75.7813  47.1978
O  97.7513  83.4650  37.4075
O  92.4467  77.2232  49.2970
O  91.0327  69.6977  39.1388
O  88.0064  70.7223  32.6407
O  93.1812  83.2374  37.1952
O  100.4380  73.1572  36.2446
O  100.8730  79.2906  44.0188
O  102.0930  75.2313  40.3502
O  92.2221  69.3864  35.0016
O  86.7559  82.8555  33.1664
O  100.0510  79.1487  36.5549
O  101.5870  86.2919  46.8108
O  80.7746  85.3738  49.5375
O  85.4965  79.6703  63.5936
O  81.9597  72.5512  55.4084
O  87.0582  72.6304  58.6320
O  93.1671  69.7765  63.5103
O  85.8628  81.3736  56.9574
O  81.7030  77.2444  60.8783
O  90.6195  74.9534  54.3389
O  90.2789  78.2379  53.3600
O  89.9042  84.0310  52.8917
O  101.0260  84.5099  62.1039
O  91.4935  70.7277  67.8977
O  91.7753  73.8013  67.8561
O  80.9368  82.9583  64.2793
O  94.8124  79.6053  80.1830
O  80.7611  75.5769  77.2675
O  96.0215  81.6564  82.7689
O  92.2052  81.1159  76.4158
O  89.5594  73.7985  78.7260
O  99.0903  82.4583  85.4282
O  99.6551  78.5990  84.5146
O  95.0011  84.8352  75.2774
O  83.4293  85.2241  86.4034
O  87.9351  85.4365  80.9596
O  84.6613  73.9626  81.4818
O  100.8790  75.6943  70.2867
O  98.5214  74.9152  89.5140
O  84.0620  77.8545  98.0555
O  92.5995  84.3386  88.1086
O  95.1851  73.0956  92.3295
O  101.9660  70.9425  100.1520
O  101.8230  69.2318  91.9077
O  84.7820  82.8221  88.5714
O  98.2751  73.1110  104.3060
O  82.5032  71.2921  95.1953
O  81.6171  77.8270  99.6908
O  81.4353  69.2329  104.4840
O  90.3306  82.7700  96.1230
O  87.8683  83.1871  95.2537
O  93.4669  72.6249  104.7280
O  93.4082  83.7817  91.4993
O  94.0604  70.6478  98.9172
O  84.8593  72.0892  99.3951
O  96.3803  99.6008  36.3460
O  81.6152  102.7920  37.4067
O  96.1655  103.4730  46.8826
O  80.9096  102.3180  46.9840
O  91.1437  94.0384  37.2297
O  83.8428  97.8089  36.6080
O  95.0407  86.9674  43.1590
O  98.0552  102.2270  40.0597
O  104.7310  104.4240  32.2169
O  93.5186  87.0724  48.7470
O  90.2905  101.8900  50.1252
O  100.9060  94.0670  38.3700
O  97.5256  86.9297  42.3048
O  92.2238  104.0790  41.9598
O  81.7151  88.0792  37.2341
O  95.5129  101.8010  43.9957
O  100.4880  89.9772  37.3008
O  84.8956  104.9010  41.3478
O  104.6240  104.4130  35.6765
O  91.5465  90.2001  51.1925
O  99.2197  92.5549  50.9431
O  89.2210  99.1862  66.1833
O  81.2228  90.8280  50.9908
O  91.7016  90.5862  61.5021
O  95.4630  99.8990  59.0489
O  103.6260  96.7747  54.5532
O  97.9534  89.6409  55.0687
O  86.8330  99.3084  64.9833
O  104.8580  98.3681  66.8462
O  97.4447  102.6670  66.7464
O  87.8223  105.1440  54.6837
O  87.7502  93.9499  69.9442
O  100.8970  101.3530  78.1162
O  85.0617  101.9040  70.6611
O  100.7260  87.9982  77.2620
O  81.0214  103.3350  81.1810
O  83.8246  88.1027  72.9569
O  100.5030  103.4820  81.7790
O  85.6126  101.8010  82.9223
O  97.1505  103.1110  73.3279
O  100.7740  96.7064  76.3442
O  104.8720  102.3170  79.2259
O  102.6840  96.9977  100.5980
O  91.6041  89.0269  100.1690
O  91.9207  99.9652  96.7128
O  102.7170  90.6649  93.8543
O  101.9110  99.1674  102.0090
O  98.7501  94.0155  98.6946
O  88.3232  95.9069  93.1334
O  89.7263  104.8940  99.3736
O  84.0176  96.4192  87.8117
O  88.7299  88.6480  95.9503
O  88.5140  96.6212  99.7107
O  104.2810  97.6791  89.6988
O  91.7179  98.9618  91.7412
