415
Terminal OH atoms
O  66.3435  50.9784  50.8991
O  52.1954  44.7779  41.0526
O  69.3295  42.1524  40.8459
O  68.2094  44.9453  47.6094
O  48.2872  56.4177  64.7269
O  72.6267  40.7352  45.5615
O  46.4984  63.5481  41.8591
O  40.3961  58.6860  40.7835
O  41.7065  44.6529  63.7734
O  47.9263  62.6236  58.9440
O  59.6921  57.9146  40.8533
O  45.7965  57.1122  74.9486
O  44.1199  45.2620  77.2778
O  72.5989  53.5387  76.7695
O  43.6438  49.3845  89.7138
O  70.2885  52.0941  76.3385
O  45.8017  52.9112  89.9016
O  70.2818  49.6546  77.4573
O  55.7927  41.6372  96.0364
O  49.6802  47.6647  108.3590
O  49.1590  42.1277  99.2753
O  51.4635  41.8579  95.4152
O  54.6084  49.9589  91.3406
O  64.0783  49.3419  92.8391
O  49.2034  52.8165  90.7713
O  50.5307  47.3118  100.4380
O  65.0994  53.1551  93.0125
O  63.3754  45.1704  111.6890
O  49.0348  42.2302  96.6229
O  54.9484  49.0178  96.1341
O  55.7614  53.1734  100.0100
O  53.1564  53.4218  99.7221
O  55.2622  47.2039  103.6200
O  45.1119  57.2512  125.8810
O  47.8369  40.6239  130.3970
O  52.3834  42.0451  134.7520
O  46.6632  48.5998  133.7540
O  48.5785  40.5108  122.3300
O  46.5549  44.2184  121.0850
O  42.1631  45.1729  129.0070
O  71.2131  47.2779  135.6140
O  53.1108  56.5949  121.1290
O  50.4098  43.7261  135.1190
O  54.4829  42.4128  137.0720
O  51.9061  51.2015  139.5730
O  50.4993  45.7289  121.5410
O  62.6674  42.0609  134.7040
O  65.5966  54.6773  139.7810
O  70.8795  42.1956  135.0070
O  41.8869  81.8389  53.5733
O  41.6150  85.4305  54.1967
O  60.7028  67.7897  46.2908
O  44.8678  90.1159  59.5507
O  49.7496  66.5105  57.1321
O  61.2461  87.4320  40.6546
O  63.7157  76.1765  49.6608
O  61.9643  89.7510  45.0360
O  65.6393  85.1520  76.8267
O  60.7951  89.1946  75.6426
O  42.1821  82.0636  96.7814
O  55.5876  89.9158  110.9190
O  41.1201  79.3516  110.6760
O  42.3921  76.8748  109.0660
O  44.3084  83.8755  106.4730
O  44.7308  83.6216  92.6404
O  40.9863  73.4478  104.4980
O  66.1466  75.4760  106.8540
O  45.5490  89.5526  104.2330
O  61.0230  74.3948  105.0770
O  53.7444  73.8318  112.8510
O  57.8121  78.3627  104.7470
O  47.5047  83.4263  119.9870
O  53.4434  72.9392  137.5940
O  55.3680  88.7824  128.0330
O  44.8068  78.6132  117.8920
O  65.9256  77.0095  115.9040
O  61.1099  80.0245  140.3960
O  52.0393  89.3232  126.4750
O  40.7000  93.1439  60.0038
O  69.4119  114.1790  53.3589
O  58.2786  99.1903  41.5173
O  66.2869  90.9900  64.8518
O  72.1971  106.0610  60.0923
O  73.6281  110.3200  63.8905
O  60.7445  115.4250  74.3964
O  45.4866  92.4625  67.1603
O  55.9183  92.6201  76.9163
O  51.6757  101.4750  84.3145
O  61.5477  107.7280  69.1090
O  43.5228  101.1690  72.3750
O  73.2094  114.3740  68.7548
O  57.6211  95.8890  75.9399
O  68.0810  103.4720  66.4242
O  63.7971  96.8582  128.9470
O  67.6714  96.0134  128.4610
O  61.6417  97.5527  130.6010
O  68.7965  91.6424  130.7350
O  42.0125  110.8900  120.8660
O  48.0147  94.7204  137.6570
O  54.8050  113.7050  130.4630
O  48.4085  95.2082  135.0450
O  54.8187  127.5210  45.3441
O  51.3613  138.4600  42.4488
O  56.3566  123.5270  48.8501
O  56.2065  133.2740  57.3477
O  44.7187  124.6280  45.0434
O  40.6727  124.9040  59.1406
O  52.4246  133.2300  44.3765
O  60.1153  138.7700  56.6541
O  55.1753  119.0630  46.6118
O  43.9480  117.9540  47.6479
O  40.5947  129.2520  52.2578
O  44.9321  124.0460  61.9780
O  73.4311  139.1790  43.6917
O  56.1896  121.0770  45.2893
O  62.6701  124.3900  53.8708
O  62.9520  137.7260  51.1912
O  41.5566  129.5100  68.7764
O  42.1700  125.8930  73.0340
O  61.0638  125.2650  73.9410
O  45.3721  124.9140  66.9352
O  65.9521  122.9680  76.5835
O  53.8336  120.9760  75.1681
O  45.7812  135.7010  71.1653
O  45.9637  128.2430  88.0592
O  59.2737  127.8530  72.0673
O  73.6946  123.5980  81.8539
O  57.1796  135.7740  112.3900
O  56.1258  140.0100  107.1750
O  61.9244  121.0130  123.3760
O  48.4798  115.6080  122.7260
O  55.9249  115.8130  121.9990
O  47.5156  131.6800  128.5260
O  65.6109  124.0290  132.6790
O  67.6087  130.6800  125.2910
O  42.2945  135.8370  126.0470
O  49.3720  128.1450  125.5650
O  44.3184  136.0250  138.9440
O  49.4440  139.2120  116.2020
O  60.9430  137.6800  129.1230
O  56.1266  133.2560  116.7210
O  51.6716  129.4840  117.9110
O  50.1843  139.4980  120.5250
O  72.2087  124.3300  134.4230
O  65.1908  131.1370  129.2730
O  66.1314  133.9970  139.7800
O  53.2917  136.1700  118.8190
O  90.4935  52.7098  41.0300
O  82.8938  46.1676  57.7309
O  97.8274  48.7845  50.8730
O  100.0790  50.7850  49.5687
O  105.0630  46.0554  56.5405
O  104.9290  47.7346  60.3551
O  100.8180  53.2654  82.5944
O  99.2962  46.3094  74.5452
O  90.8987  46.9337  83.9906
O  105.2540  58.5381  75.9455
O  97.9636  46.3453  108.6700
O  86.8317  47.7404  97.3396
O  100.3400  56.2713  107.4240
O  86.9024  41.3264  115.4370
O  92.8704  48.6903  110.3960
O  83.7878  49.5296  101.3090
O  81.0138  45.0192  107.1440
O  75.8956  52.2172  136.7180
O  81.2306  43.8275  121.6440
O  75.7779  42.2822  135.8320
O  106.7740  45.8026  122.2250
O  94.9637  59.2453  138.6070
O  105.0820  56.9878  126.3630
O  92.6625  59.8218  133.9240
O  92.1375  65.0333  134.0880
O  74.4876  49.3878  132.8830
O  77.0022  48.5407  132.3820
O  99.4340  43.5009  124.5050
O  86.9722  64.4583  132.6780
O  84.6097  41.5239  120.1600
O  77.7499  74.9964  49.4708
O  84.4822  72.0122  59.5519
O  81.0373  75.4809  61.7376
O  101.6470  90.4672  78.6394
O  103.2550  88.3103  102.4370
O  105.5620  71.7274  111.2620
O  94.8870  88.7089  94.8678
O  85.7342  86.1701  104.9220
O  104.0630  73.9250  111.8100
O  77.3487  75.3700  127.5580
O  78.1210  71.0719  116.6610
O  89.0104  77.3818  123.3820
O  92.4499  84.5779  118.3220
O  99.8511  87.7937  132.6050
O  103.7260  89.3576  117.8660
O  90.9276  93.7751  47.5645
O  102.9310  94.2956  47.4413
O  89.9940  100.0430  48.2632
O  82.7788  106.3310  43.6824
O  89.5077  98.5575  65.1367
O  79.2690  104.6520  49.2260
O  90.4456  114.1650  89.6512
O  92.9743  111.0700  72.3147
O  96.9188  111.3650  69.2359
O  92.9609  92.4528  80.8973
O  85.5568  108.7170  104.8980
O  99.2392  92.5950  101.4480
O  74.0170  114.9670  103.1140
O  76.2443  101.0820  138.9820
O  79.0223  108.6900  138.7880
O  102.6290  106.6820  120.8140
O  89.2296  113.2150  139.8080
O  99.3553  97.5650  124.4300
O  101.0140  92.7830  118.4880
O  83.1567  115.4030  137.6600
O  84.2504  113.2550  132.9300
O  84.6377  108.3150  140.7390
O  89.7514  117.2010  48.3912
O  85.7565  126.4640  60.8645
O  90.8990  117.8020  50.8328
O  97.0664  116.4150  61.6024
O  94.4677  125.7440  48.0846
O  75.8748  122.6830  53.2557
O  91.8796  132.4730  50.5436
O  82.6780  116.3050  42.1467
O  83.7226  129.1430  52.0782
O  77.6581  131.1410  63.0256
O  86.5232  139.4150  55.4204
O  85.8653  139.6670  50.7350
O  95.8306  116.8170  83.6708
O  100.5830  131.3610  87.1323
O  102.8090  117.0730  75.8356
O  82.0295  121.3690  82.9447
O  103.6720  116.0830  85.8413
O  89.9477  138.5720  78.3075
O  91.1471  121.2960  77.8802
O  90.0940  119.4290  72.9614
O  95.4362  126.9800  75.9961
O  104.5060  126.3770  74.5775
O  86.5199  140.2950  84.2339
O  77.9926  122.1160  76.7472
O  104.7040  131.2430  70.3006
O  100.4320  134.5880  90.5316
O  103.5940  116.9080  96.1752
O  105.3970  118.9070  99.4873
O  82.7228  134.5300  102.0450
O  81.2387  140.2570  109.9840
O  94.1682  129.3700  90.7621
O  101.5200  132.0670  91.0010
O  79.9704  120.0580  134.2420
O  75.2443  118.0910  131.4120
O  92.4500  126.6390  140.7070
O  89.0654  134.7530  123.4130
O  99.6409  138.8010  128.3800
O  86.8692  126.2300  119.4160
O  88.2453  134.9870  125.9970
O  76.0928  129.8720  131.7870
O  104.7290  140.5730  126.5720
O  93.7472  117.7030  138.6340
O  95.1399  124.1250  137.2180
O  133.1350  44.3839  45.7899
O  133.7460  41.9071  40.7263
O  134.9500  47.4682  57.4696
O  126.4420  54.7750  58.4474
O  124.2220  50.2017  50.1178
O  134.9240  49.6025  62.7575
O  119.2350  41.7515  48.8837
O  138.1810  47.1446  53.2559
O  113.6130  59.9147  44.6579
O  111.4040  53.4538  71.0293
O  108.2420  56.9352  77.5123
O  130.3010  43.3568  72.9814
O  130.0260  42.9871  83.7247
O  133.4950  44.6990  86.2388
O  122.9570  49.5615  81.3489
O  130.0050  41.3140  70.9126
O  121.7810  51.6611  78.5022
O  118.8530  51.3906  82.4247
O  129.3560  59.6874  81.2434
O  109.0930  41.8303  87.4934
O  137.9340  50.8912  88.2900
O  123.0250  48.0068  76.0620
O  133.2200  47.0104  71.5494
O  132.1080  63.6341  79.6724
O  115.6100  53.0206  95.8879
O  113.1580  62.2877  97.7336
O  112.0380  42.4127  98.6117
O  129.2090  44.3553  90.3548
O  123.1830  55.6418  104.3810
O  121.8630  55.4444  101.9750
O  137.0580  43.1225  98.0174
O  121.0460  64.5240  98.8027
O  120.0550  55.6437  103.9640
O  118.9130  61.8017  94.8461
O  120.3110  61.9949  99.6392
O  112.5790  52.8891  126.8860
O  118.9690  47.4095  123.1670
O  121.0830  53.9678  135.6320
O  118.1800  43.0636  117.4840
O  128.6430  54.8576  139.0240
O  126.8460  45.6896  139.8570
O  127.3730  46.8387  135.1830
O  133.7320  50.7007  135.6250
O  122.9100  47.5055  124.9550
O  108.5580  47.1345  118.7470
O  135.0530  56.2172  136.1010
O  115.2300  58.6173  129.7890
O  129.9970  48.0843  137.8610
O  136.0410  86.9992  63.7940
O  134.6470  85.4371  57.8230
O  119.0700  72.7567  48.0870
O  111.6050  79.3232  59.3879
O  132.2690  70.6973  54.6442
O  114.9080  68.5396  52.3009
O  131.9170  78.7839  47.3719
O  117.3000  74.5964  45.4502
O  129.9130  80.2392  51.3941
O  130.8710  86.2042  44.2988
O  136.3270  86.6016  59.5095
O  112.3370  81.7718  60.3488
O  126.6210  77.9503  46.6088
O  116.5950  68.0405  48.0487
O  136.6040  70.7411  44.8003
O  122.8650  73.8163  40.5173
O  136.7240  77.3562  88.0846
O  134.8430  71.6627  87.2633
O  133.3260  69.5343  86.5981
O  137.3710  74.5432  109.4580
O  134.0240  82.9517  114.5070
O  128.6210  81.1086  96.3301
O  121.7730  76.5075  119.0120
O  127.0550  72.8458  127.1300
O  118.1930  75.0728  118.3630
O  119.7920  72.4677  131.9050
O  138.1530  73.3160  137.1010
O  124.9030  80.9108  119.7090
O  131.7830  67.0976  137.0780
O  133.8830  77.1536  123.6670
O  107.3120  109.4140  52.1531
O  115.2810  114.2040  64.8122
O  117.7710  112.8280  59.5012
O  133.9220  113.5950  63.5288
O  136.0910  114.4720  60.7184
O  127.4900  113.6140  53.0399
O  123.1680  93.4651  49.2992
O  115.9750  108.2750  61.7290
O  128.5340  90.8721  72.6847
O  113.0870  111.7940  72.0370
O  128.2520  95.3570  87.2858
O  131.2800  114.5650  85.9345
O  132.7860  113.0330  80.5851
O  119.6700  104.4100  107.1760
O  114.1580  94.7416  113.1250
O  132.6320  114.1420  104.5850
O  134.5150  114.6550  93.9556
O  117.2600  107.2820  118.0530
O  111.6650  96.9223  138.4420
O  117.0450  93.4043  134.1750
O  113.6420  106.7710  137.5410
O  108.1550  111.9600  135.6270
O  113.2130  134.9720  46.8062
O  132.5050  131.0130  49.0815
O  133.1270  135.8030  41.2650
O  139.1780  120.6740  62.0641
O  135.9060  133.8750  48.8569
O  112.1110  134.0350  44.4649
O  109.2310  132.0870  54.3197
O  138.8920  120.1990  53.8893
O  117.5630  137.8810  57.7210
O  132.7100  136.5610  43.8696
O  118.5050  129.1070  42.8210
O  121.2680  129.7330  44.7664
O  135.4530  137.6030  48.4054
O  117.5760  131.7180  58.5322
O  122.3080  135.6610  51.9171
O  119.4640  126.9590  74.2215
O  137.4370  131.4940  79.6205
O  139.8360  134.8430  87.4494
O  127.6400  134.7600  80.3451
O  109.6610  138.9280  72.6260
O  139.0660  137.4520  85.6961
O  123.9710  135.5290  78.3941
O  133.5000  129.8390  71.0758
O  138.1140  125.9380  67.8603
O  139.2060  135.5830  82.7292
O  113.4150  139.7820  74.7230
O  128.5390  140.0930  80.5501
O  131.4390  139.7540  75.9349
O  131.6060  117.0130  103.4990
O  111.5420  120.3930  101.5890
O  131.4210  132.3430  92.5634
O  125.0130  131.3680  99.0957
O  130.2970  118.8040  115.1970
O  129.0080  134.2940  91.3200
O  130.7200  130.2770  100.6240
O  111.3410  131.6360  115.4050
O  127.8910  127.6260  104.1630
O  134.9530  129.3070  93.6570
O  111.3710  137.1780  117.3920
O  115.9280  124.4270  128.7040
O  140.2730  131.3750  133.8760
O  110.0940  132.1170  117.6940
O  109.1230  137.4090  126.2180
O  135.6100  136.8140  125.2360
O  132.5080  134.9770  131.4940
O  110.5080  132.1360  127.1140
O  121.3800  124.3390  120.4780
O  110.6080  130.8000  124.0180
O  119.3360  118.5750  138.6440
O  117.5250  116.9020  139.9020
O  125.6330  116.0750  121.2450
O  118.2330  123.6350  140.1740
O  115.2760  140.0640  132.0290
O  110.6670  123.5270  132.7090
O  121.2160  120.4080  138.6410
O  138.7020  137.3820  140.3300
O  127.6470  132.7690  122.2330
O  138.7960  132.1310  139.2440
