682
Terminal OH atoms
O  51.6186  43.0212  58.9187
O  67.1017  43.4653  54.1065
O  39.3766  55.7697  50.0451
O  64.7157  42.1647  55.9188
O  46.9419  41.1525  57.8442
O  38.8908  52.2895  49.1294
O  55.6354  41.3823  56.8536
O  59.7258  59.1111  47.7367
O  58.5862  54.9154  41.3535
O  62.7737  56.4669  44.7770
O  47.6907  49.8024  56.2035
O  65.1295  46.1638  44.3405
O  48.8017  55.3692  58.1642
O  61.3181  45.6122  55.6438
O  57.9423  47.1072  57.5809
O  66.6452  59.5661  52.4875
O  54.0139  53.4381  72.0137
O  53.4147  40.2689  79.6339
O  52.2447  55.2524  66.1198
O  66.1098  40.9184  75.2421
O  51.4184  46.4542  62.9645
O  50.7217  58.1645  63.0432
O  66.7427  53.0571  63.7141
O  66.5427  39.9389  72.7368
O  66.8767  45.5286  69.0659
O  42.5220  40.9641  86.0964
O  45.0883  41.5383  88.9035
O  41.1327  46.9585  99.3896
O  54.1457  40.5730  83.7359
O  61.6087  41.1837  98.5580
O  52.7768  39.9587  101.0600
O  57.8878  40.3515  85.7912
O  62.0380  56.0226  99.2191
O  64.0214  39.0675  99.2685
O  44.2512  52.2785  97.9912
O  63.7422  46.4501  98.0902
O  55.2168  41.6609  81.4834
O  46.2900  42.7976  109.4770
O  62.3690  49.4794  103.2870
O  40.4708  51.1096  123.1620
O  40.0957  58.6069  121.9760
O  50.9008  60.1178  116.6300
O  51.7162  51.4187  107.7580
O  48.5771  45.0134  106.4350
O  63.6500  43.3327  102.8380
O  62.7796  54.0919  119.7130
O  62.1885  53.5977  110.0250
O  50.7365  57.9603  112.7280
O  60.9556  51.2021  110.5340
O  48.3187  45.7199  118.8790
O  41.2212  55.4451  104.4820
O  42.3770  53.7030  106.1970
O  39.0710  57.9105  106.9820
O  55.8134  57.7840  104.8570
O  61.9436  44.2852  108.8940
O  43.0349  58.3589  117.1980
O  63.0603  42.8922  110.8580
O  55.6740  57.2432  121.5550
O  65.6736  60.1195  107.0340
O  41.3782  81.5345  40.0648
O  61.8981  79.9416  43.7153
O  60.4474  71.3540  39.0890
O  48.5703  77.0117  39.7596
O  50.1814  76.5523  43.4776
O  41.2258  74.8879  45.1294
O  50.1833  70.5234  54.8496
O  55.4791  67.5332  46.4688
O  47.3388  63.5724  46.6203
O  58.6257  63.2415  42.7064
O  58.3288  72.5233  40.0224
O  40.7832  79.7018  50.4236
O  49.3999  62.2009  60.8382
O  43.7023  63.9366  66.7168
O  46.2429  62.7242  79.0309
O  54.8648  67.9377  66.4953
O  45.3221  76.4912  71.1716
O  45.6302  72.3343  81.1003
O  47.3247  61.7089  68.1875
O  46.3189  74.0113  71.3349
O  44.8408  67.7647  70.5971
O  58.7191  77.8274  70.8531
O  47.1785  61.5804  83.2884
O  54.5667  73.4942  94.6552
O  39.4400  61.4209  96.9655
O  44.3727  78.1786  90.1398
O  61.6586  81.3124  98.7596
O  56.6851  72.3297  84.4906
O  51.5149  80.4798  89.8450
O  53.1194  72.1902  96.5607
O  53.7549  76.7956  86.2195
O  44.3295  76.3887  87.7683
O  39.4951  78.5377  100.1280
O  49.8999  72.5811  91.4712
O  50.1030  63.4895  85.6527
O  52.5333  61.6912  113.4930
O  56.8223  65.0344  111.6600
O  59.9149  71.2020  114.8460
O  53.4188  69.4203  106.5430
O  58.6336  67.9668  112.5080
O  47.9727  69.3919  120.5350
O  54.5776  62.1003  111.0630
O  54.1337  63.7547  105.7520
O  49.3386  62.4310  120.4250
O  50.7760  76.6150  116.2540
O  56.2570  99.0889  43.7464
O  39.4813  81.8941  53.8102
O  50.2793  82.4441  48.6482
O  51.8509  86.0751  46.6352
O  40.7996  83.2113  45.2449
O  50.3734  83.3020  42.5922
O  59.4303  95.2999  59.9878
O  66.0856  100.2140  40.9836
O  39.7551  100.1810  46.5179
O  67.3042  94.5498  41.6549
O  65.7462  89.6877  51.8197
O  64.9752  88.2950  46.9241
O  58.4625  95.0955  57.2254
O  65.4665  96.4659  41.7972
O  62.1691  101.6680  41.8335
O  62.0552  90.1912  47.2567
O  55.0937  96.4710  45.4650
O  58.2953  83.9943  40.2121
O  43.2903  85.5967  56.7418
O  55.9226  100.7800  47.8639
O  42.5248  84.5486  59.0911
O  66.0011  93.3356  46.1908
O  63.1752  81.8786  51.1895
O  62.1316  87.5159  67.3074
O  57.2967  91.4369  62.6661
O  47.9761  99.3965  69.2015
O  44.5894  85.1253  66.3458
O  54.1524  86.8271  68.7827
O  65.7109  91.8086  73.4400
O  44.9492  101.9420  70.1343
O  64.7568  98.5374  79.8022
O  44.4672  84.7095  63.7176
O  54.9591  101.3810  76.6327
O  58.6100  101.1520  61.4464
O  64.1315  99.8193  64.3134
O  46.7478  97.0010  69.4895
O  44.9835  92.9836  73.3912
O  55.4016  92.7708  71.1789
O  57.5755  96.1124  72.9397
O  65.7074  101.1060  79.7513
O  40.5428  85.1103  70.6042
O  61.5323  99.4432  83.7020
O  55.5723  94.5320  94.0688
O  43.5527  96.5964  92.6358
O  60.5262  98.0117  96.2586
O  62.9467  101.7380  89.6874
O  58.3297  93.9051  100.4880
O  60.5020  99.2125  88.5818
O  60.2836  93.7340  82.9498
O  66.2228  91.0215  117.0680
O  40.1509  98.6680  113.4880
O  66.4743  83.8242  108.2250
O  43.1611  96.4317  118.2460
O  55.7232  100.3460  120.1820
O  47.1953  115.2700  50.9151
O  51.4384  105.7480  40.4953
O  56.9751  103.8430  42.1842
O  62.5033  111.4480  43.1750
O  42.0691  116.4150  49.9657
O  56.8368  120.8350  59.1791
O  49.9775  117.5440  40.0621
O  66.4838  120.2240  52.0330
O  65.1272  123.0690  47.4876
O  43.8190  123.5970  56.6135
O  55.2468  106.7380  52.9326
O  60.9513  116.9310  55.9474
O  61.4357  103.5760  56.4866
O  44.2999  105.8000  70.2068
O  43.5837  107.5210  63.9749
O  42.8873  114.2480  62.9405
O  65.5123  120.6780  62.9265
O  42.7585  113.3670  75.7773
O  54.3427  120.2270  60.9907
O  39.5504  119.3230  66.7696
O  64.4779  117.5510  81.3928
O  62.8123  105.9390  64.9447
O  51.7206  120.3540  71.4700
O  62.9526  122.0650  69.7223
O  47.5117  121.1070  69.3527
O  50.0837  121.6740  69.8365
O  61.8821  107.4120  62.8564
O  40.8956  104.2650  66.8878
O  52.5324  115.9310  70.9695
O  65.7245  109.5130  60.8207
O  43.4167  117.2250  75.4101
O  57.5228  115.0820  72.8255
O  66.0851  114.0500  67.0816
O  53.4923  121.3130  64.1536
O  61.8071  110.6590  88.0809
O  54.8915  104.5880  91.1071
O  61.8638  113.0860  95.1325
O  61.6350  108.7180  99.1731
O  63.4476  104.5500  102.3330
O  65.8505  108.1270  94.0861
O  54.1226  107.2540  99.3564
O  52.0071  108.1420  98.1343
O  54.0986  120.1660  100.5720
O  64.8374  116.7290  91.9815
O  47.0858  106.9820  100.2630
O  64.9563  109.6340  91.7576
O  61.6485  107.4500  89.3615
O  42.6844  109.9860  101.8460
O  59.0978  117.8030  100.8900
O  61.8920  122.0270  94.7994
O  46.0301  114.6670  101.4820
O  57.2354  110.3430  103.0260
O  49.2302  105.5670  109.9300
O  57.5566  104.8300  118.9180
O  55.4479  108.0740  118.8810
O  65.8607  120.1800  109.2260
O  50.2466  119.1290  121.2100
O  52.3552  106.1950  106.4580
O  51.5853  117.1360  119.5140
O  66.5168  116.0420  108.0050
O  42.9579  112.0740  123.0770
O  65.3420  117.1360  122.6830
O  66.0937  116.7960  119.0860
O  62.0732  119.1570  114.2010
O  63.1370  116.7540  114.6950
O  61.7975  113.5000  120.5940
O  42.2842  104.4440  116.9490
O  42.3939  117.3870  113.6600
O  72.6865  58.7925  42.1870
O  92.8754  40.4467  41.6725
O  87.5792  46.5462  45.9485
O  87.9788  41.1537  44.4988
O  71.7209  52.0175  52.4244
O  85.0411  44.0388  48.5124
O  90.6819  44.3099  55.1925
O  72.1560  49.3060  52.6990
O  84.6397  48.0307  50.5119
O  71.9621  53.3513  39.7472
O  70.9777  48.3409  48.7297
O  88.9259  59.5592  49.9876
O  76.7599  46.6792  44.0927
O  88.1105  49.7768  57.5317
O  73.5238  41.3308  51.2587
O  80.1539  58.5736  48.0380
O  92.7455  51.1245  58.8561
O  69.4754  59.9465  73.0681
O  87.4958  55.8248  79.3598
O  93.0088  44.3585  70.9560
O  83.1940  46.0143  70.0273
O  80.1400  54.7315  61.9578
O  69.6714  54.4939  60.6276
O  70.3954  49.6252  63.6969
O  79.7305  42.1195  76.6498
O  71.7247  57.3774  72.6580
O  83.1760  53.6344  79.9232
O  82.5873  56.1900  80.7223
O  82.9574  47.2134  67.6364
O  85.3612  52.2663  87.4410
O  79.0510  59.6678  93.7373
O  84.6820  49.7566  88.7950
O  80.6483  57.9948  82.2711
O  90.0749  56.2630  96.8813
O  83.0340  58.3974  93.8982
O  92.3469  43.9808  101.1010
O  85.5681  58.9223  98.0186
O  87.8881  43.0268  97.2370
O  67.8725  54.5720  85.1449
O  70.5430  58.0389  99.1267
O  82.3119  50.2040  93.6010
O  89.2815  42.9927  100.3110
O  72.9025  57.4846  121.1070
O  87.9810  45.1700  103.6640
O  87.1444  52.6584  123.1530
O  85.0433  52.0312  106.9250
O  86.9465  40.4052  103.5160
O  93.6432  39.4897  118.2380
O  84.5553  52.2110  111.2320
O  68.5082  52.7822  107.2720
O  79.9007  54.3197  109.2830
O  72.1500  50.1061  122.1940
O  90.8498  46.7224  123.6210
O  85.9598  74.0404  47.9978
O  95.5904  80.7821  57.8181
O  90.7128  64.5342  45.6700
O  69.4474  67.6092  55.3690
O  88.2036  62.3820  45.1095
O  75.6329  72.8140  45.8683
O  89.0891  69.5920  47.1136
O  77.5632  69.7469  54.2480
O  92.1822  62.9123  77.9111
O  79.0696  72.5047  63.3540
O  81.8969  61.1534  68.9650
O  93.0397  79.0837  69.2627
O  79.9764  65.6837  68.2976
O  90.8600  62.5787  80.2473
O  74.3460  71.4689  61.4752
O  86.3900  62.4605  63.0574
O  91.5653  66.6063  77.2526
O  80.8933  78.7779  74.1284
O  77.4278  77.9772  88.9470
O  67.7622  60.7196  96.6772
O  79.3860  60.2421  99.9624
O  80.5719  72.8113  87.8424
O  82.4141  62.0098  82.1107
O  87.2110  78.0498  95.4078
O  68.7951  71.8620  82.6228
O  71.4868  75.6991  97.3225
O  85.3085  71.1532  99.9881
O  92.4206  77.8121  96.2519
O  90.8191  69.0937  86.6913
O  76.5866  62.3916  99.9298
O  68.5716  62.1856  101.5840
O  92.9997  63.4496  100.2070
O  76.2730  67.1361  101.9100
O  89.0556  60.8275  123.3430
O  83.3691  62.1365  103.6520
O  94.6939  61.4666  106.8380
O  72.3071  64.7448  123.4380
O  76.1304  79.5050  121.6360
O  86.3818  68.4988  106.1000
O  69.6369  73.5943  113.3050
O  72.1858  79.4112  104.3650
O  76.6999  75.6392  103.8050
O  94.5403  60.7449  118.0090
O  84.8254  80.0235  123.5510
O  74.0071  60.5585  118.4700
O  77.7691  78.9581  109.2220
O  78.3139  73.4140  105.8620
O  75.9704  73.9796  112.3670
O  77.4912  72.8572  110.4320
O  70.7021  62.6963  114.1180
O  92.8500  72.4416  108.4450
O  93.9398  87.9089  48.5007
O  94.8138  93.6663  45.9758
O  90.0329  94.7524  60.2425
O  76.5472  87.0680  42.9941
O  90.8572  90.6333  48.8055
O  68.4506  100.0280  48.2718
O  72.9338  97.7027  45.7191
O  75.1334  99.4334  54.1812
O  77.7328  99.7670  57.8953
O  76.1999  86.4377  39.5405
O  72.8747  82.5745  39.6698
O  87.6766  83.7151  48.4565
O  71.1897  88.2781  41.5158
O  73.0626  94.6708  54.1780
O  86.6795  95.2815  51.0436
O  95.2208  88.1191  57.0343
O  72.6626  94.5457  42.7204
O  93.2654  94.4461  40.6723
O  94.7064  96.6377  40.1928
O  79.9092  82.2303  39.4185
O  92.0485  90.1163  62.8053
O  78.6683  91.3791  62.5838
O  72.2260  92.4493  62.7900
O  67.8729  82.9765  72.0257
O  81.6330  100.2290  74.6517
O  90.3947  89.1190  70.3703
O  83.2208  94.2400  69.8975
O  80.4776  101.4370  65.4463
O  77.1968  96.0916  61.2419
O  72.2872  86.5266  70.3545
O  70.9033  95.9780  69.3527
O  90.5633  92.3691  62.1573
O  93.9870  87.5079  61.7188
O  93.4093  86.2600  71.7992
O  84.6411  92.8452  62.4987
O  85.6628  95.5263  69.4129
O  73.8579  99.2427  61.3586
O  88.0422  84.6621  85.7474
O  93.6625  85.6357  102.2450
O  93.0578  100.6110  91.6959
O  85.1931  100.5790  99.9647
O  86.6521  102.7040  92.7510
O  71.6815  99.9532  99.9103
O  81.6873  82.8462  82.6522
O  95.4422  100.0960  94.8797
O  74.8711  101.8610  104.8670
O  77.4758  92.3858  105.5180
O  75.7068  94.7057  103.3680
O  70.1665  92.7676  114.8170
O  73.9355  86.0083  115.2110
O  85.6374  95.6076  104.9550
O  86.1688  98.2508  106.4840
O  70.4830  83.0167  113.8520
O  75.4208  96.4822  115.8520
O  87.3529  88.5344  113.2050
O  92.3593  95.4614  119.0200
O  82.1668  95.1370  115.3590
O  80.3030  90.0796  116.7470
O  70.1755  95.2275  112.0440
O  76.7414  119.4170  40.5139
O  79.9725  115.2080  39.9160
O  71.7080  108.1430  48.8200
O  76.2127  122.8780  50.5533
O  89.5340  123.5770  41.9029
O  73.5589  109.0570  51.3783
O  84.1433  112.5560  49.8027
O  91.7934  122.1510  45.0357
O  79.7882  111.6380  57.5427
O  76.7489  109.4380  51.3369
O  76.7822  105.0510  51.1260
O  71.6310  110.4390  54.4542
O  70.3218  120.3270  55.1513
O  68.8144  119.6430  57.3352
O  79.2661  105.4850  57.1272
O  88.4021  110.5130  62.3391
O  81.1778  108.7630  71.5907
O  83.0197  106.4160  64.5955
O  88.1601  111.5750  67.3583
O  89.2467  118.6890  80.1527
O  83.5734  117.7860  70.5554
O  89.4314  108.1510  63.1566
O  83.6899  119.1200  64.1213
O  74.8532  109.3620  74.4754
O  94.6784  110.3510  72.8660
O  74.3844  112.6700  76.9977
O  85.9333  118.6040  71.2767
O  76.9264  121.0080  74.8555
O  93.2124  104.5490  61.5321
O  84.0342  106.1700  70.8869
O  84.7311  108.3110  79.1346
O  91.8337  120.2330  73.3244
O  81.6417  109.2580  80.7601
O  69.7031  105.2100  98.3651
O  80.3736  115.5600  81.5908
O  90.6986  109.5030  82.6564
O  76.4957  109.8010  84.2439
O  81.2241  119.9030  88.9528
O  84.1697  104.9090  88.8445
O  94.8562  110.2200  85.6983
O  78.4832  114.1240  84.0602
O  88.5621  117.8250  91.7393
O  95.0535  113.6220  87.6448
O  71.7144  116.0340  100.5870
O  81.3549  111.6710  89.0273
O  74.7982  119.5410  99.9597
O  94.7874  109.3950  90.9286
O  77.2161  107.3740  98.0928
O  75.0170  121.9040  97.3884
O  78.2486  106.7520  100.5030
O  69.6208  123.9180  85.9478
O  73.8755  105.0990  109.6180
O  68.9355  109.5690  109.7640
O  70.3685  115.7420  116.3820
O  81.2265  109.9480  113.0040
O  75.1757  109.2640  112.9410
O  91.9256  113.5020  115.8630
O  82.0884  114.4810  111.3300
O  79.6195  121.5400  102.7570
O  71.1337  106.1570  112.0140
O  69.0354  118.0610  116.4820
O  71.4128  108.8340  110.5670
O  73.2630  111.3860  104.9050
O  69.3393  107.3650  105.7250
O  76.9394  116.3890  103.9010
O  77.9095  104.2810  111.7660
O  84.7730  119.0780  122.7280
O  91.9531  122.0420  113.8580
O  73.4979  103.9630  102.9410
O  74.2705  114.9880  123.0490
O  118.6570  49.6040  54.6330
O  122.8390  53.9441  53.4546
O  95.8773  58.9412  41.4552
O  110.5170  45.7347  49.2116
O  102.3260  46.7251  60.1210
O  110.3160  51.3356  58.3010
O  120.4680  51.9795  44.3582
O  102.6030  39.6494  44.6533
O  114.3890  45.9020  53.9115
O  100.5570  48.2107  52.5665
O  97.0552  40.1651  40.8014
O  110.5300  41.3735  59.6664
O  97.8925  40.5032  45.2493
O  116.3910  48.6928  58.5715
O  121.2350  59.3695  39.3357
O  101.2340  43.4139  43.3607
O  115.7170  46.9571  49.2495
O  118.0320  56.8884  61.4645
O  111.7500  46.9793  63.2787
O  108.6770  39.7195  60.7568
O  99.2126  42.7147  76.6758
O  116.1660  40.1110  81.4020
O  122.4200  54.4764  61.8366
O  116.8840  59.6843  64.0735
O  114.3530  40.5259  83.2890
O  105.3030  55.2962  96.1940
O  113.5730  41.5427  92.2162
O  105.9930  53.9754  98.4744
O  116.0400  45.9869  96.2171
O  116.0230  43.3790  96.6809
O  110.4200  50.7539  89.6798
O  118.2220  51.7361  98.4457
O  122.0270  45.5696  92.1915
O  120.3160  43.6850  91.5460
O  122.8200  42.5524  86.0636
O  118.8260  57.7414  90.9504
O  116.8400  39.1630  85.3038
O  112.5620  59.0622  104.8800
O  116.7740  47.5329  106.8960
O  96.9854  51.6388  111.7710
O  100.8060  50.9812  113.1180
O  107.3820  45.1157  110.6190
O  120.5880  49.6460  122.4220
O  106.3710  39.6955  105.1600
O  101.0630  39.5255  115.2470
O  115.3470  58.6056  117.4560
O  98.5380  44.2823  110.2130
O  102.3180  57.7615  113.8230
O  108.3100  51.7690  109.6340
O  98.5704  59.2917  121.0910
O  95.5317  44.3284  109.9470
O  97.6337  41.7208  115.9840
O  107.1800  50.4670  120.1640
O  115.8770  55.7687  107.3180
O  118.0190  41.4710  108.4670
O  121.1290  56.0809  122.9210
O  108.0650  48.6539  112.4620
O  105.3460  55.5884  115.5890
O  111.9990  55.8795  117.5310
O  95.6212  42.3982  118.3990
O  123.8960  39.5669  113.9680
O  114.4250  64.2317  58.3776
O  121.7040  67.8372  49.6622
O  108.4310  62.7785  47.1915
O  110.9330  72.3589  50.2182
O  109.4590  60.7084  48.5808
O  123.5560  71.7317  44.7187
O  117.5580  71.2974  40.6199
O  111.4320  65.2488  52.2901
O  102.0200  78.4463  42.2063
O  112.2650  76.5697  49.6845
O  123.6260  73.1947  52.6945
O  122.7860  64.5276  49.0789
O  105.8690  69.9790  44.3644
O  112.0280  70.2019  53.2491
O  122.6670  67.1796  41.5336
O  111.8790  72.4442  59.3864
O  108.2940  69.8753  55.7478
O  119.9400  79.4701  40.5979
O  114.3040  73.1131  58.6155
O  111.0390  79.4086  63.5144
O  107.0180  68.8266  79.6927
O  111.7650  73.4626  71.8993
O  111.6600  65.1440  73.4272
O  97.3626  76.0058  63.5599
O  118.0210  60.9702  67.3094
O  121.8520  78.6374  61.6607
O  108.7930  71.6405  68.8712
O  114.5960  78.0255  80.7281
O  115.8670  66.7933  66.2468
O  112.9050  77.8875  64.5696
O  116.6040  79.4534  66.3742
O  99.8910  68.7862  97.6098
O  111.4520  72.6368  86.8339
O  120.9510  63.7025  86.6938
O  100.9670  61.3361  96.0326
O  111.1610  79.5991  102.2360
O  117.5290  81.4542  98.7167
O  109.9280  61.5895  84.9837
O  112.0510  69.9293  82.3482
O  118.8830  67.6820  83.5306
O  120.3680  70.8912  94.3869
O  119.8910  64.6669  88.9329
O  114.9300  79.2020  89.8379
O  122.0470  65.9019  87.7947
O  110.8180  79.7508  99.6053
O  114.8160  80.5853  85.2665
O  117.8820  68.7554  120.8010
O  96.3744  81.2310  114.3220
O  95.9565  66.6100  116.4980
O  115.8180  73.7317  122.6480
O  110.9160  63.8932  105.0770
O  117.4980  76.8405  118.3020
O  97.2204  62.3286  117.4420
O  117.3520  65.8594  116.8050
O  108.6930  81.1713  114.6270
O  114.4410  79.4056  119.8830
O  114.8930  79.5865  117.2240
O  115.8570  71.2551  118.3070
O  96.3313  85.7253  57.0068
O  106.2080  92.5935  45.9344
O  109.7140  95.3067  57.3310
O  103.6320  94.3040  59.4122
O  108.9420  88.8438  39.0876
O  108.6320  93.2766  41.8265
O  120.1140  98.7032  53.0379
O  123.6300  89.2819  40.7635
O  109.1670  85.2421  56.0382
O  115.6560  92.2423  52.5747
O  108.3080  101.2270  54.0778
O  117.1400  87.0631  40.3233
O  117.4260  81.6692  80.1661
O  104.1350  83.7318  66.3553
O  98.0175  94.8695  64.8151
O  103.9550  90.2058  71.8806
O  100.6970  85.3158  75.7795
O  100.3870  94.4589  63.6675
O  105.8630  84.3038  70.1600
O  104.4560  92.1281  78.9162
O  112.6900  85.5425  78.2392
O  105.2360  93.5785  61.7668
O  117.9080  99.9132  82.8580
O  109.8630  86.9302  97.1203
O  107.3750  82.3341  97.0461
O  99.7133  89.5224  85.9750
O  117.4510  97.0434  94.1235
O  111.3510  92.1493  83.6078
O  112.2260  90.9899  99.7889
O  96.2233  100.5560  89.3527
O  111.7320  83.9936  87.7451
O  112.8040  82.3230  85.9125
O  99.4845  99.1519  86.8090
O  116.7420  82.7887  89.9278
O  99.6324  93.4509  116.2730
O  120.4330  102.4740  106.3630
O  121.6240  101.6900  120.5990
O  98.6860  96.9770  110.1630
O  99.5174  93.3706  111.3330
O  103.0410  93.5570  107.9530
O  122.3190  91.9458  120.6720
O  99.6272  89.5057  113.0670
O  115.6760  90.7772  114.6740
O  117.2500  84.3222  119.2730
O  113.9440  92.3858  116.0660
O  96.1555  100.8830  111.8710
O  116.1270  81.8922  119.1160
O  120.0710  102.2970  118.2090
O  122.0000  84.8335  123.9820
O  105.6770  91.5353  102.9190
O  120.0450  109.8870  55.5582
O  121.2650  112.5260  49.9297
O  120.8610  106.2950  57.5783
O  101.4370  119.6240  54.5995
O  122.4550  104.8020  47.9798
O  117.5020  108.6060  51.9985
O  105.8750  114.4720  51.4850
O  119.6150  108.3360  48.0174
O  100.0330  108.8150  58.3267
O  111.1040  114.6090  57.2743
O  107.3670  112.0290  48.2905
O  109.3670  122.9130  53.0508
O  110.9250  123.5550  59.8787
O  120.7850  116.9810  52.2483
O  117.7110  118.4470  66.3235
O  117.4750  122.3290  62.5062
O  98.3300  118.8720  69.6559
O  117.5690  110.0030  76.6746
O  103.8690  120.9540  70.6000
O  116.4730  115.7690  60.9507
O  121.1720  107.6970  66.0506
O  97.9174  118.3810  62.0187
O  106.7150  120.4070  71.2569
O  103.6300  122.5250  65.6453
O  116.3170  113.5150  66.4929
O  101.8330  123.5540  77.7767
O  118.4190  108.8610  68.3788
O  117.2640  115.1660  68.4081
O  117.1060  112.1480  64.2013
O  122.7050  113.6040  80.7253
O  121.1890  108.7070  61.0054
O  101.9250  112.1700  82.4096
O  122.1360  120.3100  87.3413
O  105.6590  105.4490  86.0652
O  111.0240  118.7680  92.1809
O  105.8980  116.7830  88.5072
O  98.9809  103.1920  93.4032
O  110.0650  122.3460  97.4886
O  122.2590  112.6220  92.9209
O  116.5730  123.1340  95.0066
O  118.5870  114.6650  83.6064
O  122.1110  108.1410  89.8315
O  109.5980  122.1800  89.3114
O  97.5003  105.9340  89.2522
O  106.0690  118.8450  96.5270
O  111.9700  106.9740  81.7334
O  119.8800  123.0920  81.6704
O  123.8510  121.1830  83.5348
O  108.5050  109.7840  103.7290
O  116.1850  111.9970  107.9880
O  117.4800  115.9300  115.8790
O  96.9745  123.4080  123.8610
O  96.2773  115.5710  105.4650
O  103.7120  103.1930  115.7550
