637
Terminal OH atoms
O  41.0488  43.7182  39.2214
O  61.0029  56.8503  39.9189
O  55.0042  39.5522  52.8503
O  42.8804  57.9773  40.3376
O  57.5047  57.2495  46.6740
O  40.0555  56.6596  46.7991
O  55.5408  45.7116  42.7369
O  42.7092  40.7524  51.6808
O  42.2820  38.4896  39.2076
O  44.7551  57.6764  53.7847
O  61.3284  43.0249  48.4204
O  55.3711  39.0987  55.4325
O  55.3121  44.1943  40.1308
O  53.3337  50.8826  44.3121
O  45.2899  38.8200  43.1435
O  51.5294  55.5327  53.4902
O  44.6897  49.8980  44.8110
O  48.3646  56.0274  57.6682
O  41.7332  39.9000  54.0095
O  59.8833  58.6328  46.5662
O  63.7251  40.0488  46.7905
O  63.0791  41.7266  38.8454
O  48.0864  53.9952  64.6658
O  41.2095  39.9408  60.2078
O  43.4866  49.0900  77.3219
O  53.4900  50.4317  77.7523
O  49.4581  49.1287  78.2633
O  51.1208  53.8436  60.8166
O  57.5557  43.0631  84.8746
O  59.1881  45.1193  85.0808
O  51.4199  46.9779  84.3103
O  40.5492  38.8645  98.6974
O  46.3685  51.5332  97.5474
O  38.9505  45.9109  97.7978
O  46.7917  46.9720  80.5874
O  64.7990  44.4788  94.6939
O  39.2304  51.3909  94.2385
O  49.9176  50.2304  92.2272
O  49.8848  57.0386  89.3863
O  50.0595  47.1884  92.7073
O  55.4062  48.0057  98.7894
O  53.6908  47.6621  79.4349
O  47.5988  40.7832  102.7170
O  42.8476  57.4445  114.6660
O  41.9121  40.9753  101.4380
O  40.9969  53.5372  108.3650
O  60.6779  41.7283  112.9130
O  52.5772  50.4575  104.7470
O  50.7750  55.5885  99.4484
O  63.1811  43.2541  108.9200
O  47.1687  41.6349  110.6740
O  55.0844  46.6182  103.9370
O  45.1650  49.9741  114.0300
O  58.7118  53.0639  109.3060
O  61.2435  53.1749  110.1010
O  64.1164  45.6856  105.8080
O  45.6564  58.2681  118.1470
O  47.6057  43.1965  118.2170
O  65.3471  39.0308  114.5200
O  50.4710  60.6986  51.5299
O  64.2668  60.9144  42.5849
O  56.2913  60.4552  39.5392
O  54.8921  64.7032  42.7479
O  50.0831  71.1155  41.5187
O  55.9174  69.5372  41.4574
O  44.0843  72.6556  58.2704
O  53.7835  63.2429  51.9382
O  38.8020  68.4775  47.1859
O  59.7191  63.4344  46.0977
O  64.0526  61.7648  45.0543
O  48.0456  61.3478  49.6129
O  45.5325  62.9443  51.5826
O  50.1260  70.5555  52.8869
O  47.5117  71.6951  41.6320
O  38.6597  74.8666  50.6766
O  45.9845  69.4655  48.5641
O  39.7574  66.0412  53.4216
O  59.5397  65.1034  55.4687
O  61.6236  60.5593  52.5005
O  52.3600  67.0320  56.1142
O  52.0895  72.1451  57.6390
O  53.9203  69.8030  38.5314
O  59.7227  61.9541  64.6260
O  50.4137  66.4438  58.9984
O  64.7565  67.7366  59.4860
O  40.5325  70.2263  64.3409
O  63.7450  67.4022  77.1200
O  39.5417  61.6554  61.2147
O  52.4890  61.3536  73.1123
O  47.4900  76.8166  66.4911
O  57.7333  63.5059  71.9315
O  45.6205  68.7771  63.9922
O  54.6985  68.5395  69.0414
O  62.7312  70.8340  76.6906
O  45.8181  61.1436  66.8614
O  60.8685  78.4441  72.6312
O  52.8257  59.3257  90.6402
O  56.9879  68.4125  81.3144
O  62.3471  60.8053  84.6583
O  39.5066  70.7713  98.9734
O  48.7099  73.7579  90.2686
O  62.2920  69.7119  85.5599
O  64.4189  62.6819  81.1426
O  51.2765  73.7683  89.4662
O  40.7323  69.8722  88.9702
O  61.0404  74.6653  84.1227
O  60.0447  64.3722  81.7858
O  53.5254  69.6760  91.0765
O  57.3743  78.7328  99.1552
O  57.5687  73.5180  101.1400
O  38.6485  67.2040  102.9810
O  60.8268  66.2045  118.6340
O  58.6654  65.0866  103.3910
O  62.6771  62.4297  113.1510
O  45.5640  67.8624  106.4260
O  64.2163  64.0279  104.1210
O  59.7004  77.0123  115.8340
O  64.6073  69.4637  103.7980
O  46.5344  72.0719  104.5230
O  53.6139  78.7476  111.4250
O  63.4342  79.6719  47.8315
O  64.6327  97.0256  55.6667
O  39.8255  87.6043  42.5989
O  39.0267  83.6505  39.3568
O  53.3672  84.5845  49.8885
O  50.7225  86.8833  45.6252
O  54.4613  95.6858  43.7214
O  38.6559  95.9418  38.6487
O  60.4598  97.0716  51.7207
O  61.3999  87.9909  54.4015
O  60.8724  88.6214  49.6295
O  57.9197  87.6712  43.3796
O  62.4785  88.2805  65.1011
O  46.9861  81.1470  65.9623
O  59.4013  91.2605  62.7949
O  40.3103  85.8544  77.7828
O  58.3189  93.9378  76.5496
O  55.2436  90.5804  61.6527
O  42.8567  83.1866  75.2682
O  46.8590  89.1371  74.7765
O  55.1386  91.6990  77.2877
O  53.0762  92.4367  73.8657
O  51.6121  89.2653  66.8281
O  57.9100  96.0686  78.3358
O  40.2411  80.6261  93.0796
O  53.2754  93.5700  82.7515
O  58.9159  91.8836  81.5681
O  39.1360  90.1244  98.2760
O  60.8713  93.7061  81.6785
O  42.8241  83.7985  97.3973
O  43.7233  86.1055  93.0011
O  43.1590  79.7829  94.5876
O  43.3582  91.9565  86.0552
O  52.6020  91.2104  81.7007
O  41.8205  96.7942  94.2864
O  47.3479  99.1880  88.6855
O  50.2078  80.7980  102.8650
O  43.4311  93.1068  116.3390
O  50.1600  81.3787  113.5260
O  39.4778  83.9940  111.5610
O  59.1468  97.9615  107.7710
O  45.5551  93.8900  111.8490
O  57.8438  85.2433  102.5740
O  45.1589  87.8287  117.7520
O  41.0209  95.2142  116.9090
O  59.3283  98.0281  119.0560
O  57.3533  98.5915  114.7620
O  46.7122  79.9498  113.6570
O  56.3628  115.7050  53.8271
O  43.0253  109.9250  41.6450
O  59.9622  114.1530  48.0788
O  42.5197  116.4100  47.9025
O  59.6639  116.3880  53.2639
O  41.7548  110.0840  44.0136
O  43.1483  116.3490  41.9354
O  63.6520  117.2160  57.5716
O  56.0178  118.5780  50.4502
O  42.1419  103.6670  50.2079
O  62.9781  114.4580  53.1604
O  51.0938  114.4660  43.5689
O  60.4095  116.1780  46.3583
O  40.2628  105.0300  71.9928
O  60.9297  114.7560  61.2495
O  56.8647  112.8780  63.4374
O  47.6069  103.3890  72.0171
O  49.6883  100.8720  70.8571
O  50.1014  100.2760  75.4101
O  41.0531  102.3500  67.2463
O  48.2484  105.5250  65.4261
O  51.2550  118.2270  68.8981
O  48.7971  105.2020  73.5283
O  61.6806  110.7070  62.2764
O  46.0080  110.1200  76.0324
O  50.7017  103.7800  83.9483
O  43.7722  117.3420  92.6711
O  49.5954  104.8100  87.0561
O  48.1779  116.8390  88.0147
O  56.3121  107.0750  97.7852
O  48.3744  103.0700  88.6189
O  44.2175  108.8580  85.0351
O  43.2784  119.2090  86.1974
O  48.7838  114.3890  93.3190
O  61.4373  113.6950  90.6266
O  49.8864  101.6290  82.5071
O  65.2435  117.0360  93.0678
O  55.8304  107.7570  108.1330
O  54.6118  99.9862  109.4920
O  39.6363  117.8220  107.6610
O  58.3518  103.3100  107.0360
O  57.1671  112.9980  117.5910
O  52.1298  112.4260  116.0610
O  42.0411  103.0500  105.6210
O  65.1121  104.8190  113.2670
O  69.5163  39.1990  40.4370
O  65.7336  42.2837  55.5846
O  91.3279  44.8246  52.6483
O  80.1745  57.2512  50.0968
O  71.9574  52.2840  38.9733
O  65.7471  43.3955  47.4684
O  82.7241  38.9244  42.7437
O  90.0838  53.0666  40.0447
O  77.8592  53.4452  42.4534
O  87.4108  46.0192  56.2943
O  88.7853  44.1254  46.3056
O  91.4175  55.1476  38.9690
O  72.8542  57.9179  58.3294
O  89.1571  38.9500  56.1540
O  77.3704  58.2052  40.4634
O  87.4802  38.5562  63.4071
O  72.7791  46.8797  67.5950
O  68.8094  38.7973  66.7609
O  70.5738  56.7161  58.9244
O  77.0545  51.7228  64.5090
O  84.9933  57.4288  63.1300
O  72.4078  57.3005  76.4070
O  88.7311  43.1322  64.3791
O  84.6279  50.5871  64.8601
O  87.3755  49.5068  68.8205
O  83.8891  43.1197  73.9975
O  82.0358  48.1058  67.3858
O  67.7401  51.2909  74.7766
O  92.2957  46.6707  65.1636
O  87.3573  46.7295  91.1702
O  77.6239  38.6102  82.6635
O  67.3595  45.2251  95.2437
O  79.7895  39.2394  87.5208
O  85.8428  54.7392  99.0849
O  72.2299  42.8795  93.0362
O  91.4936  53.9310  85.1486
O  77.9927  55.2221  95.3234
O  67.5516  50.2706  96.6053
O  70.3305  51.0938  96.8686
O  86.8638  50.3015  97.8769
O  89.0383  42.6552  99.9475
O  70.9229  40.0105  101.2410
O  87.1675  43.3448  112.7030
O  75.0656  40.1623  104.5100
O  88.5707  43.2420  110.3250
O  81.2505  57.4705  108.9220
O  71.5251  44.7873  102.4000
O  86.9823  47.6163  108.6530
O  84.3755  52.2548  103.7560
O  82.2876  53.0641  105.3150
O  80.1937  54.7386  113.7790
O  86.2779  39.6316  111.0290
O  84.4915  47.5345  101.0660
O  74.7132  50.2976  111.9050
O  81.6008  42.2476  101.6800
O  90.4577  71.3103  45.3173
O  90.7679  76.7206  39.9748
O  75.6052  73.0539  54.0753
O  79.3056  65.4614  41.0392
O  78.0933  70.7295  43.8885
O  76.6270  71.9756  39.9454
O  77.4035  63.5854  53.8207
O  78.7420  78.9252  41.5713
O  80.8687  78.3810  39.7978
O  67.8411  60.9297  43.1895
O  87.7874  68.1654  51.3515
O  78.7748  70.4141  57.5623
O  67.8838  72.5046  40.5090
O  80.8584  74.5505  54.2565
O  92.3382  61.7160  40.3517
O  91.4243  76.1834  58.4443
O  82.1325  59.9914  72.4752
O  68.2001  72.6603  66.3523
O  76.8672  68.8825  71.2728
O  91.2479  77.6734  60.6213
O  86.6246  59.4045  68.7972
O  80.7863  69.0326  75.3629
O  75.3250  64.3157  70.7328
O  78.6141  59.2427  70.5319
O  71.6613  75.0733  63.7559
O  85.7904  69.1917  64.5862
O  78.0256  68.5257  77.9318
O  90.5510  59.1633  77.9864
O  65.6196  67.4229  69.4537
O  89.3542  62.6936  78.4325
O  71.4470  75.6609  68.4103
O  84.6843  69.4954  58.7947
O  79.6480  75.5629  63.9757
O  70.1665  70.0306  90.4509
O  80.9974  76.4067  81.9021
O  88.9744  70.4242  82.7452
O  69.6522  71.5070  85.5694
O  70.2102  63.4785  89.4286
O  66.3680  73.2349  81.5389
O  74.4713  74.8299  82.9483
O  71.7353  66.2272  90.7598
O  67.9206  77.4924  91.0567
O  66.6356  77.8357  79.4135
O  77.4442  73.3258  111.2500
O  79.1717  60.8175  104.8750
O  65.6994  73.9686  119.0260
O  72.2631  60.0527  119.0970
O  86.9434  66.7948  103.8510
O  67.9338  70.7525  105.7740
O  70.8756  66.2855  117.3070
O  85.6961  60.8128  99.2617
O  71.9418  88.9648  39.9053
O  90.8958  97.0763  41.8748
O  70.8148  86.1369  56.1837
O  73.8825  83.1562  55.7726
O  72.8067  96.4575  57.2456
O  68.1917  86.0034  48.8830
O  80.5548  80.8276  54.4386
O  85.4543  94.7483  41.6026
O  70.9227  89.9665  49.1198
O  75.1263  83.2976  42.0075
O  79.6671  97.4214  48.3035
O  75.6105  82.5134  48.5645
O  69.6271  87.1158  42.9348
O  78.5954  79.3125  55.4183
O  69.2752  79.4022  40.7206
O  79.9673  86.2588  74.5130
O  77.3876  81.0726  67.5701
O  91.0184  98.7437  72.5067
O  76.3907  79.1246  76.9066
O  87.5478  97.4091  63.8810
O  82.1386  80.5916  66.3168
O  80.1221  91.6479  69.1210
O  73.4157  95.4692  67.1511
O  77.7125  89.2976  73.4424
O  75.0622  91.0461  78.5880
O  77.1415  80.1502  64.9958
O  75.0431  80.6481  60.9214
O  91.6112  92.9824  78.9171
O  74.8428  98.5279  93.0101
O  89.3221  90.5400  86.4749
O  79.8131  79.0561  92.3519
O  74.0059  81.3909  93.8421
O  68.5068  86.0202  88.9455
O  90.7031  91.1433  81.3941
O  74.2608  98.1378  95.6816
O  83.7079  97.5589  83.5194
O  72.4565  83.1402  89.3090
O  80.9309  98.5319  94.5420
O  81.5473  84.1774  91.2976
O  87.7333  88.6597  98.7157
O  86.2929  96.4435  80.8784
O  71.6982  93.7172  98.8642
O  92.0578  93.1622  95.6320
O  70.5245  83.1600  107.0480
O  68.8218  91.5681  114.7730
O  66.9672  97.3593  111.3440
O  77.8025  94.2394  112.8660
O  86.1646  94.0167  108.5760
O  87.0185  90.0098  100.9310
O  69.5359  87.9759  101.0220
O  66.7761  94.9838  116.3600
O  80.6473  79.1039  113.1050
O  82.7276  99.3321  115.2670
O  75.6388  110.2830  46.8497
O  66.6465  115.7560  43.9023
O  76.2409  102.5180  46.6325
O  70.0122  107.6090  38.7305
O  67.3302  108.8760  51.4205
O  81.3894  110.2050  41.5553
O  78.4307  112.8510  53.2968
O  66.6020  116.8770  46.3717
O  76.6021  102.2700  43.0366
O  80.0075  119.3440  56.5776
O  75.0692  111.1570  55.0035
O  92.3354  102.6070  56.3474
O  67.9153  104.3620  53.1611
O  86.9177  111.9390  46.6714
O  86.7699  99.9083  45.3067
O  79.1165  110.9380  51.6249
O  73.1042  117.8440  47.4538
O  75.3964  117.7150  41.2411
O  86.3104  100.3530  75.6944
O  81.9293  102.2220  62.5704
O  80.0519  111.1290  77.1254
O  77.8755  103.4380  71.3369
O  91.0834  105.6400  77.3488
O  92.2434  116.6930  78.6245
O  72.1165  118.1340  68.2170
O  90.2963  112.9040  69.2140
O  74.7791  118.0150  68.1188
O  68.2049  102.7090  61.1961
O  76.1425  112.4530  71.9617
O  74.5292  116.5210  63.7113
O  78.2424  103.0440  77.4350
O  87.7794  106.2820  78.5988
O  89.2799  110.9420  90.2640
O  87.9948  111.2830  83.1856
O  78.9929  100.6970  79.2485
O  91.1292  111.5040  88.4749
O  78.1399  115.9630  83.7197
O  84.8301  104.5140  98.2627
O  85.1751  103.4300  93.2529
O  76.2300  117.8610  83.9817
O  90.8227  113.1480  80.6968
O  74.3288  101.9460  97.5918
O  79.6642  117.0280  93.2090
O  84.9416  102.5030  79.8499
O  73.9409  105.7910  78.9987
O  74.1082  115.6710  104.1090
O  70.3369  101.3660  102.2280
O  71.7973  118.9930  117.2050
O  87.0094  114.2380  101.2120
O  66.2938  108.1360  105.4520
O  66.3112  107.7190  116.7950
O  69.9351  113.0680  108.2830
O  75.5474  100.6330  119.0780
O  70.7433  111.0990  110.5460
O  70.1748  103.7740  100.9370
O  75.9290  111.0300  101.7510
O  85.2274  102.8660  101.2070
O  91.5820  117.0310  108.7090
O  72.3180  118.8860  110.3730
O  81.8426  111.2550  104.4340
O  91.5051  104.5580  101.5780
O  81.8925  107.8700  104.7180
O  72.5405  113.3500  108.9590
O  80.1326  116.3630  104.2260
O  73.2584  115.1050  117.6730
O  74.5379  110.6890  119.1770
O  69.9459  99.1873  112.3320
O  116.1550  56.5216  49.6718
O  93.0040  45.1401  46.0132
O  107.7100  55.4524  50.6107
O  92.8906  57.9959  39.2207
O  99.3648  41.2883  53.4809
O  102.3620  49.3028  56.0467
O  93.8866  48.5559  43.7364
O  98.1346  47.3536  49.7962
O  97.4632  58.6339  42.7258
O  119.4030  38.5185  50.6397
O  95.9505  45.4272  72.0112
O  101.1320  55.8991  73.5936
O  92.9223  52.4252  73.3831
O  94.2947  41.2638  70.2832
O  115.7090  43.4735  77.7939
O  98.7994  47.8752  71.3284
O  114.4390  58.4787  60.4001
O  93.6778  52.9188  62.7042
O  99.1144  53.9057  61.3077
O  101.5600  48.6220  67.2419
O  116.6560  39.3040  81.6202
O  95.1131  47.0586  89.0402
O  106.6410  40.4235  83.6473
O  101.2910  38.8848  92.9852
O  105.3450  53.5815  95.7068
O  107.2220  58.4525  95.4650
O  116.1310  45.0084  86.2338
O  95.6313  53.8261  98.8076
O  110.9720  57.6521  84.9627
O  102.0990  43.2944  81.0715
O  116.9830  58.8509  88.4216
O  107.2300  43.2749  110.2410
O  98.1769  47.3129  104.9550
O  99.5643  44.3583  105.7040
O  110.0960  55.3589  113.6630
O  93.1234  49.0146  104.2260
O  95.4749  39.6165  106.9030
O  117.3590  43.0726  100.6360
O  97.5906  54.0707  100.4970
O  108.6780  44.7832  117.8430
O  100.5850  50.3369  114.6210
O  104.9820  40.4933  113.8040
O  113.7950  50.0617  113.5560
O  97.8843  39.4015  100.3440
O  109.5290  43.9835  103.9830
O  106.3500  47.7576  108.3680
O  96.7395  42.0111  102.2200
O  117.3120  40.3674  109.1950
O  119.4680  38.9424  108.5770
O  114.1040  38.4724  104.0000
O  104.4360  43.6056  107.9260
O  119.2400  41.5914  110.6810
O  109.4330  57.5950  111.3670
O  107.3330  57.5783  113.3160
O  97.8355  70.3596  39.1685
O  107.4570  65.4407  43.2038
O  93.4719  62.4416  51.8214
O  112.0220  64.2270  48.5390
O  106.3410  72.6300  38.6039
O  108.7670  67.3002  48.7568
O  102.2390  59.2688  54.0216
O  117.9060  70.6588  43.2281
O  113.3940  74.4310  41.2784
O  100.5950  61.7641  38.6652
O  108.8010  65.5777  51.9287
O  119.3310  61.6148  43.6458
O  98.6403  61.8409  54.6868
O  115.2180  74.0888  45.8991
O  94.9530  77.8130  49.6672
O  92.9670  78.6436  44.2806
O  101.5830  59.2169  45.8065
O  99.1824  65.1458  69.9116
O  104.9620  69.1773  73.1272
O  111.2650  72.3568  72.1968
O  118.1810  78.6402  70.8034
O  94.9112  77.4683  66.2740
O  97.7149  70.7353  63.2924
O  95.7352  71.3108  61.5066
O  103.2110  70.8201  71.3529
O  93.5825  73.5545  68.1963
O  96.5788  68.7114  62.0001
O  108.3630  78.1444  75.9493
O  95.0856  67.2356  76.4504
O  104.0910  73.4070  71.6715
O  115.6290  78.7571  78.6093
O  101.4400  60.3225  83.4013
O  93.9226  65.9191  93.2606
O  109.1130  62.6783  83.8403
O  111.0090  64.7127  85.5991
O  107.2900  62.8091  81.1608
O  118.9380  74.2093  80.8003
O  107.9380  77.1466  89.5491
O  104.7760  67.4704  81.7895
O  97.1778  59.0064  88.1690
O  102.7070  76.8999  90.1550
O  115.3930  67.6472  79.8286
O  96.0956  67.8550  98.9942
O  118.3130  65.1325  81.8693
O  113.3540  72.9571  79.1578
O  112.8140  78.8547  80.5052
O  100.5720  68.9279  99.6549
O  92.7040  74.4592  116.8930
O  117.8540  63.2748  115.7430
O  107.9160  66.7659  119.2790
O  116.3350  70.4534  111.4390
O  112.2570  72.7920  105.3650
O  114.8010  70.6672  109.2280
O  99.5032  77.8764  114.7570
O  102.9070  60.3080  119.4520
O  100.2970  80.3395  53.6870
O  96.7019  97.2045  55.1950
O  102.9900  85.8389  54.4328
O  103.6770  97.2252  52.8013
O  97.1958  86.9923  56.7124
O  99.6521  96.7331  39.0451
O  113.7610  95.3766  42.2109
O  103.7550  90.0264  58.1340
O  96.7239  90.8520  58.6937
O  100.7490  95.9160  58.9927
O  96.0057  94.5979  66.0138
O  100.8900  88.8388  61.8606
O  92.8650  96.8323  70.6215
O  103.6910  83.7606  64.1042
O  113.4640  85.9885  78.7261
O  103.4280  98.6445  61.6679
O  111.8870  93.7350  65.6259
O  114.5330  93.1412  62.2002
O  96.7294  89.1838  78.0822
O  97.1493  90.9005  66.1401
O  97.0921  87.4279  64.3698
O  110.1820  93.4249  67.7377
O  105.6230  85.5002  63.5605
O  117.7480  92.5374  76.8139
O  109.8410  92.4451  77.7297
O  115.0540  82.5030  71.3164
O  96.4823  89.7762  61.8657
O  106.4310  90.0006  95.2037
O  101.6600  79.7922  97.4433
O  117.1590  95.2031  99.1291
O  103.4500  80.6780  87.3563
O  105.6590  98.9315  96.4637
O  111.7140  83.0462  92.7601
O  116.4520  86.3164  91.1296
O  115.3220  79.2995  83.4758
O  100.1650  94.5582  97.0397
O  95.9922  93.7325  86.7440
O  106.2810  98.2566  81.6457
O  101.9600  94.3300  90.1548
O  114.2840  95.3476  98.2350
O  116.5190  85.1630  80.2104
O  94.8650  85.7333  105.1360
O  118.3610  91.8054  99.7495
O  98.1728  97.5538  105.1070
O  102.0090  97.7680  119.2160
O  92.6075  96.4417  103.0760
O  117.2060  92.3062  105.2330
O  118.8390  93.5773  118.9450
O  100.9570  81.2316  113.6570
O  104.2690  84.9091  119.4520
O  116.3570  118.3900  50.9597
O  100.8120  107.2000  49.3675
O  105.9290  117.6370  46.4434
O  109.4310  114.0990  46.7864
O  99.2379  105.2410  48.6439
O  99.8518  105.7350  57.5344
O  98.2790  104.4500  45.6244
O  99.6189  102.1640  45.2881
O  109.3190  103.0210  66.9975
O  97.6658  116.8590  63.0494
O  97.1868  109.3420  73.3892
O  101.0010  103.1130  69.3434
O  98.6794  99.4644  74.5113
O  106.3850  106.3950  77.8153
O  105.4040  107.0280  59.6597
O  100.8180  103.4610  60.0572
O  106.5160  114.7480  62.3786
O  113.9880  114.6350  69.6925
O  118.6350  102.2950  61.1370
O  106.1720  112.1320  70.7251
O  92.7658  113.0050  60.0869
O  96.0120  99.6642  68.1213
O  105.6840  110.7340  96.7496
O  105.1390  108.4520  83.6103
O  105.8930  100.9100  94.3060
O  112.1340  103.0180  81.2736
O  106.8400  102.2370  84.8008
O  105.4140  114.1820  83.8731
O  103.3950  115.6070  93.6781
O  96.9292  117.7040  93.3536
O  104.3120  105.3830  93.8967
O  95.3316  108.7330  91.0758
O  116.7120  116.4870  84.2720
O  97.9869  99.5580  79.6572
O  110.8460  101.2280  102.4550
O  111.0010  104.1670  112.8340
O  115.5010  116.8320  105.0160
O  100.0580  118.8030  103.0260
O  97.8660  114.8450  112.0310
