661
Terminal OH atoms
O  52.4047  45.3212  44.6474
O  40.5789  56.2183  50.7571
O  48.9599  54.3875  50.1268
O  56.1153  40.2089  49.5629
O  56.1045  56.3281  39.8395
O  60.3401  42.5780  45.8387
O  55.1314  49.4125  46.3873
O  61.7898  47.9670  39.2737
O  53.4493  47.3694  43.2028
O  46.8291  49.5229  45.4095
O  59.7886  55.3700  53.8392
O  38.3961  38.3850  37.3849
O  52.5351  38.2294  42.2806
O  60.1259  49.8202  52.2583
O  39.4658  50.1106  67.9053
O  57.8639  43.8758  59.2788
O  59.9537  54.5301  69.2602
O  53.4341  44.6827  60.3436
O  45.2350  51.7076  60.2659
O  38.4312  41.8057  68.9341
O  52.3956  46.3680  72.1118
O  42.6470  43.2581  58.1718
O  59.6287  39.6970  61.9414
O  59.8074  38.6744  64.7269
O  45.5146  42.1454  70.9153
O  47.3201  54.0877  63.7822
O  38.1450  44.4995  85.4977
O  38.1768  41.3705  78.0100
O  57.4149  51.4426  76.6714
O  50.0649  38.9403  91.6577
O  48.4639  42.6053  91.9993
O  46.1687  40.9616  87.4920
O  40.2996  49.3986  91.4171
O  54.9805  48.5348  77.6859
O  60.7515  46.4159  85.6634
O  57.7444  53.4353  82.8656
O  57.3680  42.1081  91.4230
O  62.4010  48.4348  90.0445
O  43.8373  40.1500  86.1753
O  44.7928  40.4438  76.3059
O  47.7191  55.4274  101.8280
O  46.7393  54.8031  96.2932
O  38.9158  46.2573  103.1810
O  52.2331  52.3843  110.6560
O  45.9061  38.7699  101.3070
O  61.2471  55.5258  105.3920
O  52.2333  55.0282  110.8300
O  52.1585  44.2453  107.4740
O  58.5502  39.8190  108.2120
O  59.8387  37.6665  112.7730
O  45.4544  57.8145  38.3271
O  40.4699  65.8990  39.9013
O  54.4988  61.3836  50.6250
O  62.0378  72.9833  39.2846
O  58.5940  74.0001  37.7223
O  54.6651  57.3084  37.7951
O  61.0320  65.2382  46.8589
O  41.4480  60.1280  47.7987
O  47.9651  72.2573  40.8114
O  51.4761  75.2468  55.7443
O  56.8544  66.0682  41.5589
O  43.4892  62.1468  40.6154
O  49.2101  59.6163  41.5830
O  51.1757  67.3262  50.7226
O  59.3009  64.2893  45.1317
O  55.0317  68.9361  43.0741
O  39.2611  73.1139  40.7242
O  37.8464  73.2878  38.2823
O  61.9098  70.1076  53.2738
O  55.9724  63.1971  46.5218
O  43.8783  70.2811  48.4316
O  61.1338  64.6160  54.2241
O  44.1513  67.8062  38.1909
O  51.5415  57.4955  53.4190
O  59.3951  66.2520  40.4923
O  60.5093  65.6978  51.4753
O  53.0764  69.2711  56.1671
O  45.2406  67.6639  65.4840
O  59.3627  73.3665  65.6050
O  60.8948  63.0069  71.0230
O  61.9974  71.5729  64.1769
O  58.6960  57.7256  70.4844
O  51.2251  62.6775  60.0327
O  54.6965  59.7147  70.5965
O  60.9461  58.1432  71.9567
O  38.8026  68.7820  64.2712
O  41.3193  60.5557  63.0790
O  45.6560  67.2903  60.0842
O  46.8183  58.5745  65.4402
O  58.8682  74.8514  71.5606
O  62.4843  68.9955  72.4085
O  44.3174  67.4998  77.3812
O  61.9235  62.9194  85.7720
O  52.5614  74.3412  75.6159
O  46.1874  64.7618  93.2423
O  50.7712  72.7831  76.9415
O  40.1910  75.3366  79.9893
O  59.5485  65.6577  89.2884
O  53.9308  65.8653  91.5950
O  55.6888  72.1011  94.0636
O  61.1756  61.4607  92.1173
O  61.3364  60.4395  88.9083
O  57.5608  64.9966  81.6524
O  49.3444  69.0081  77.3651
O  51.1992  60.0601  91.8712
O  54.0571  59.5809  90.4799
O  58.5831  68.0279  92.3349
O  51.7082  57.5830  93.0502
O  54.8757  61.6540  105.5670
O  60.1722  73.6410  105.9610
O  58.8505  58.3588  112.3680
O  44.5180  59.5426  105.0160
O  54.5540  63.3167  103.3900
O  49.7031  70.4963  107.0490
O  52.3581  60.7217  111.5260
O  45.1992  69.0361  102.3620
O  52.8308  68.6986  109.4900
O  57.2535  62.3066  97.0362
O  57.2847  69.1107  106.8380
O  52.1570  73.0707  111.6740
O  38.3671  56.5173  110.9920
O  49.9913  62.0738  112.2010
O  62.6068  59.9131  95.3082
O  62.0227  75.0557  96.2032
O  41.1201  69.9809  113.4460
O  45.8827  92.1349  42.1084
O  46.2188  78.8148  39.7202
O  61.8413  91.9811  37.4962
O  40.3309  81.6680  40.3249
O  49.9630  83.1826  55.9944
O  41.4725  78.1296  53.9406
O  51.2767  87.1108  37.9310
O  53.1105  79.7368  53.0517
O  50.1716  91.2765  43.2331
O  62.1819  89.3063  38.6147
O  48.6389  94.0971  52.2506
O  46.9863  84.6050  40.9618
O  47.5598  84.2213  55.9840
O  62.7310  86.7251  39.3495
O  58.7181  87.0058  63.2197
O  55.4245  88.2113  57.8711
O  38.0665  77.9368  73.7024
O  62.3120  78.3344  66.1543
O  46.7725  78.3091  70.2982
O  48.6845  89.6953  73.1733
O  44.8302  78.9800  61.1692
O  56.6152  85.2589  68.6665
O  62.3394  89.6679  65.4082
O  55.1483  76.0137  84.6625
O  48.7956  89.6624  84.6541
O  48.7546  92.8867  84.1090
O  41.6595  87.1179  77.7570
O  56.2315  91.3487  88.6827
O  58.3570  88.4355  84.0530
O  49.8152  77.3051  83.8626
O  50.4662  91.1126  83.1230
O  48.1145  82.3657  87.6050
O  40.9057  80.9615  87.3132
O  52.7312  82.9919  85.8153
O  58.8875  76.5581  87.3407
O  37.9771  91.2705  77.8996
O  48.1767  77.9746  98.6074
O  44.5022  82.3226  98.7897
O  47.6947  79.7457  110.5340
O  55.8515  79.0267  101.4050
O  62.3448  93.2522  100.6080
O  59.8676  82.1580  108.2650
O  43.0615  77.1576  98.9936
O  40.0210  79.6660  102.5610
O  59.7735  75.9527  107.3660
O  41.3289  77.2819  108.6300
O  45.5136  89.4139  112.9090
O  47.4841  76.3834  96.5565
O  52.7617  89.1883  109.7460
O  47.4813  88.2197  109.7880
O  41.2255  91.4335  97.9432
O  54.7661  77.4980  112.5440
O  55.1662  94.9486  55.7921
O  51.2419  100.3160  40.9206
O  40.8188  110.0380  43.0552
O  49.1732  101.4300  47.9565
O  49.1608  111.3900  37.7010
O  47.7744  102.5140  54.9534
O  39.9629  99.0307  43.2191
O  51.9703  97.2417  43.5665
O  50.7621  113.5230  45.0508
O  39.1487  106.2540  48.8131
O  59.3513  107.3360  41.0455
O  59.9642  101.2860  37.9589
O  39.1180  95.0073  44.7991
O  56.3379  101.3820  43.9415
O  45.5784  113.3370  38.3995
O  54.8150  95.2658  50.4021
O  40.1382  105.8520  68.3262
O  60.1601  100.9480  64.4844
O  54.6628  102.1770  67.5372
O  50.6864  98.6952  63.0116
O  61.8186  104.1530  61.6254
O  37.9780  94.9283  68.4844
O  46.5489  98.6685  61.7969
O  59.6131  107.7670  71.7927
O  50.5570  97.4280  65.4798
O  45.5440  110.4810  72.8994
O  58.8765  102.5870  67.4153
O  59.8064  107.4640  63.3739
O  52.0272  96.6631  61.9067
O  56.0450  104.2380  72.7207
O  57.1792  107.2170  70.8202
O  61.9006  99.2686  65.5382
O  59.8244  96.5552  74.9416
O  55.3517  113.6060  67.0482
O  46.8879  97.0386  88.8319
O  49.2600  100.6120  81.6047
O  38.9294  104.3660  85.5305
O  56.2637  102.0070  85.9987
O  58.1354  106.7890  89.5076
O  42.6527  111.4530  93.4161
O  49.8273  101.7990  93.9454
O  47.9097  108.5350  90.3468
O  40.5424  99.9777  85.4579
O  40.5934  104.5040  103.1510
O  50.3197  107.5160  103.5250
O  49.0897  97.7425  104.5230
O  52.8854  101.3240  95.6940
O  44.6625  103.3050  105.6600
O  45.3987  96.9376  109.6050
O  62.3095  109.3440  94.8853
O  60.1391  98.9246  105.0950
O  62.2431  110.7910  108.1470
O  58.7652  97.6481  112.6990
O  56.5899  103.2850  94.9749
O  37.9048  103.0270  110.3640
O  47.1804  97.2425  106.4310
O  47.4823  105.4500  102.2680
O  51.9289  103.4260  112.9860
O  41.8731  96.8135  94.7804
O  44.1312  110.1910  113.5970
O  87.8893  43.8235  51.7631
O  86.9660  41.9414  53.5468
O  77.2023  55.6897  53.5509
O  71.1796  38.0924  47.2561
O  72.0084  52.2004  45.9261
O  67.4920  51.8352  41.3386
O  82.3192  48.1748  40.6008
O  72.2765  49.3401  47.7606
O  78.1055  49.0653  49.1567
O  80.5846  51.0385  50.4807
O  81.5382  55.7268  38.9836
O  70.8683  50.5803  66.0285
O  67.4189  47.1522  58.0776
O  79.4524  53.3829  73.5158
O  81.2507  39.7962  74.3418
O  82.1914  55.4499  71.9821
O  73.2069  50.2481  70.2731
O  84.7812  42.9362  62.0679
O  72.8079  54.4151  65.1961
O  81.5647  43.3406  74.6639
O  83.0159  43.6531  59.8598
O  67.8794  48.7935  61.5613
O  70.0297  43.4417  77.7515
O  74.1046  42.9949  77.7138
O  76.1190  38.4063  87.5071
O  86.0715  50.4001  87.4554
O  72.8776  55.2099  82.8397
O  67.4853  48.4650  77.9417
O  62.8918  54.9650  78.4180
O  76.7004  48.7067  80.1829
O  84.2439  50.8415  89.4866
O  69.8848  48.7735  86.5495
O  71.4919  46.1248  93.6337
O  67.6009  50.2583  84.7333
O  83.9256  39.3704  91.5574
O  65.4135  49.7621  93.9441
O  68.3161  44.9450  81.8008
O  76.7182  44.8268  88.8968
O  73.5398  50.3332  81.1799
O  64.9735  49.7256  76.0387
O  65.6535  49.2647  112.3630
O  63.3288  38.5369  96.2419
O  68.9101  46.6904  104.7950
O  66.4044  42.7847  102.2100
O  73.6489  56.0517  107.3180
O  66.4292  46.2111  108.3700
O  74.8888  47.5791  109.8280
O  65.5169  54.8334  109.7370
O  82.3887  49.4160  107.2260
O  71.3350  50.9311  102.6290
O  72.1903  47.2579  109.2160
O  68.6709  37.5112  105.0570
O  73.5236  48.6333  100.2340
O  84.0265  47.0330  106.8100
O  87.1063  42.8314  95.1218
O  73.9524  47.7640  107.2670
O  81.7600  45.1388  110.7170
O  64.2136  42.7460  103.7130
O  67.8817  55.1496  99.2771
O  83.4883  39.3705  108.5900
O  64.6265  39.0714  109.4280
O  66.2684  53.6742  113.2910
O  64.8563  37.8805  106.7030
O  79.3199  37.5046  98.6059
O  86.6385  62.4774  40.1810
O  69.6669  60.0113  49.1743
O  66.2439  68.6499  40.9399
O  83.9861  61.5091  51.7015
O  85.7953  72.8054  47.5295
O  64.9376  63.0245  43.8542
O  78.4761  72.7225  43.7455
O  84.1620  62.0685  37.8433
O  81.5010  62.3773  55.8745
O  81.0516  66.1671  55.9414
O  70.8802  69.4982  39.5717
O  83.0424  75.4311  52.2783
O  87.9922  58.2940  45.9648
O  87.1925  60.5739  61.3322
O  73.1585  68.3006  59.9286
O  81.4593  64.7742  64.0500
O  87.4292  71.7202  71.3254
O  85.4101  68.0031  62.3588
O  66.9339  56.4343  73.9556
O  81.8141  63.5156  75.1354
O  62.7859  69.4775  65.6895
O  63.2975  68.1545  78.6949
O  66.9302  60.1038  89.2441
O  63.9618  60.3936  81.2105
O  73.4817  67.7304  82.2584
O  81.4272  72.9051  79.9560
O  83.0385  72.2479  93.7862
O  85.7247  68.5106  87.5100
O  87.7228  66.4064  77.9352
O  75.0743  69.8070  93.9869
O  87.2114  59.3119  90.5391
O  84.8024  69.1895  78.8896
O  77.2012  62.5883  80.5222
O  78.9835  64.9166  94.0328
O  63.3253  73.3720  92.8245
O  72.6918  58.3601  86.3145
O  78.6369  57.9652  82.5045
O  64.5395  62.9787  99.4486
O  73.6676  57.3283  110.1170
O  84.8400  61.7670  106.2260
O  68.3120  67.7125  110.2550
O  73.3732  75.0027  99.4479
O  79.1808  62.7769  95.7266
O  79.7170  58.8663  97.9356
O  67.9978  72.7927  98.9983
O  85.3511  74.6147  100.0030
O  70.7254  66.6155  110.4520
O  69.6939  67.9161  103.6030
O  64.2862  61.6060  96.3994
O  65.0835  73.5828  108.8950
O  83.8406  72.3357  107.9040
O  71.1974  74.8820  97.7461
O  65.4132  75.2990  110.9750
O  62.7021  70.5508  99.8646
O  74.4312  82.9001  49.8240
O  78.6346  80.2073  49.9627
O  86.5598  76.0684  38.6415
O  67.8316  80.4211  48.8274
O  87.8428  91.9985  41.2751
O  63.0851  82.7392  52.5784
O  85.0361  91.2779  53.9250
O  69.2842  78.9245  41.0369
O  74.4228  91.1495  47.2750
O  72.5920  93.3611  52.1392
O  87.6388  89.8564  64.3648
O  71.5195  79.6588  70.6711
O  77.6841  85.9816  65.8639
O  83.6914  88.5162  58.0918
O  80.6867  81.8100  67.2757
O  76.5139  78.4569  70.3835
O  80.4865  90.7547  59.2241
O  67.4564  87.3335  67.7805
O  64.7223  77.7769  72.9282
O  72.1356  93.1743  67.7084
O  78.4926  84.6887  72.6437
O  69.0018  90.3039  71.4998
O  82.0195  91.4439  57.1170
O  84.1313  85.9410  58.1061
O  84.7502  91.0753  61.9366
O  83.0256  79.0034  69.9864
O  82.7780  78.2945  56.5696
O  84.9961  93.9715  65.4832
O  63.7800  82.9665  86.9868
O  88.2113  91.9559  77.2513
O  79.0311  93.0575  82.6748
O  88.1232  89.0176  85.0766
O  67.8940  90.9606  82.0372
O  63.4470  76.8594  94.4587
O  76.5490  80.4848  80.9120
O  77.1056  78.4055  91.2742
O  84.1894  90.5428  77.9933
O  63.3480  77.2104  91.7436
O  76.6875  79.8678  93.5431
O  79.1619  89.3706  92.1961
O  87.7741  80.8525  82.0236
O  70.5360  78.9310  77.2987
O  77.3916  90.1409  83.1249
O  63.0366  88.5114  79.2041
O  76.8408  76.8034  102.7250
O  76.5737  92.9260  108.6290
O  77.6164  92.3394  95.8825
O  64.0723  80.2522  104.4980
O  71.5761  75.6763  101.7810
O  79.3597  80.7758  106.3190
O  86.1448  86.0464  105.8110
O  75.7729  77.9701  110.4270
O  66.4299  83.6685  94.9555
O  84.7983  77.3044  99.4604
O  86.3404  75.7445  109.5840
O  68.8745  82.3882  108.1240
O  71.9199  90.2327  101.7570
O  62.9522  85.6697  110.6680
O  75.9738  88.9168  99.8205
O  66.5164  81.2655  104.4040
O  73.5183  101.5780  45.9621
O  86.2334  106.2470  44.8945
O  66.2195  107.8990  39.8578
O  63.6606  111.9910  44.7048
O  75.9353  98.0921  47.2249
O  68.4856  100.1190  51.5295
O  69.8791  111.8440  51.0188
O  64.7396  97.2029  43.6459
O  76.5470  96.2392  65.1305
O  67.9363  109.2600  71.6989
O  68.6264  100.8920  63.6001
O  86.8501  100.7450  61.2152
O  76.7247  97.6589  67.3938
O  84.6395  110.3070  71.0381
O  79.9094  105.9490  67.9158
O  82.5865  108.6800  60.3633
O  64.4756  112.7750  70.8159
O  75.7451  113.5360  57.1143
O  80.1227  109.8040  74.5494
O  63.6627  109.9520  67.2565
O  63.0087  104.8770  67.8340
O  78.0335  99.6431  76.4878
O  87.1932  112.2160  92.7155
O  77.2765  98.0259  79.8751
O  74.0855  104.4890  85.5392
O  64.2889  105.4230  80.4762
O  76.8473  96.9560  93.7743
O  75.7029  108.2900  77.0659
O  74.1908  102.8440  78.0523
O  63.8433  111.7110  89.6571
O  77.7990  112.8560  88.1520
O  65.3271  103.7730  77.9918
O  64.2828  109.5330  104.9130
O  64.7253  98.7807  99.9308
O  69.4697  96.8992  104.4320
O  64.0796  97.9424  108.2500
O  87.5652  96.1125  95.0869
O  83.4565  98.0832  99.6702
O  82.0100  104.3310  101.2980
O  80.1548  103.1800  108.4060
O  85.0615  96.8022  97.2578
O  108.0100  49.2996  42.6976
O  103.6090  55.8213  37.8967
O  104.5330  38.3274  37.8626
O  102.1840  40.9080  45.0308
O  91.8566  42.1103  53.7909
O  91.8417  46.5494  50.2665
O  103.2830  40.1046  39.4116
O  100.5390  53.4440  47.9537
O  94.3407  49.2498  52.2852
O  106.1570  48.1439  44.3506
O  94.2117  55.3536  44.0967
O  91.1711  51.2741  44.5236
O  97.1031  40.1846  56.1291
O  93.9877  53.3939  60.2980
O  92.7750  53.7999  64.2147
O  91.7569  46.5042  65.2164
O  107.9960  41.1635  63.3595
O  108.9600  41.1774  73.7610
O  98.8227  44.0565  73.5228
O  88.7405  40.0737  63.9409
O  88.5700  38.0503  71.9866
O  98.2136  44.9025  65.7412
O  92.2280  43.2105  62.6536
O  104.8220  53.7488  58.8983
O  94.0161  47.7721  66.1611
O  111.8480  38.7904  80.1807
O  95.4754  41.3566  80.6691
O  91.2969  43.4234  76.2677
O  96.9007  44.3110  77.4271
O  89.8876  51.5860  91.7637
O  96.3963  38.6157  90.0868
O  105.2320  55.1503  83.4521
O  106.7130  52.7583  76.5836
O  105.5980  45.0194  75.6009
O  94.7839  48.1508  106.0750
O  109.3890  47.8525  94.6913
O  110.5110  56.3790  104.3240
O  112.2060  39.1066  113.4250
O  93.0167  46.0867  105.6530
O  91.9482  52.7097  100.5130
O  91.4063  42.2355  104.1750
O  102.6670  41.3510  107.4120
O  89.6874  52.1004  96.2484
O  95.4221  53.8971  97.4297
O  107.2900  52.5001  102.4330
O  100.7210  55.0863  99.5618
O  105.6120  48.9770  101.7370
O  98.4733  40.7477  103.5620
O  106.6730  47.3653  110.5410
O  110.5600  48.7696  98.0757
O  103.0490  52.6126  105.5170
O  109.3580  45.1532  96.1940
O  95.9382  47.3093  100.9230
O  104.2390  46.2188  97.6396
O  90.0329  44.2767  105.1720
O  104.0210  52.0226  102.3050
O  95.9811  61.0508  51.3498
O  92.6215  57.8283  48.5346
O  89.3582  61.4886  38.4785
O  93.7195  62.9502  40.3159
O  93.3564  74.9112  52.7963
O  99.5432  68.1053  40.3345
O  113.1130  73.6062  41.5628
O  110.2420  70.2549  50.9071
O  96.5226  59.0029  49.7118
O  112.4350  57.9127  52.4359
O  111.6900  65.2888  50.0269
O  111.0170  68.7144  43.3640
O  99.4458  58.8236  52.6847
O  95.6330  61.2920  48.6976
O  99.9101  67.6365  50.4847
O  93.8661  61.7636  53.8336
O  98.4532  75.4043  55.8347
O  93.0190  60.0069  69.2715
O  96.3892  73.1340  58.0006
O  112.7760  65.6170  65.1969
O  88.7626  72.1446  56.4883
O  90.0756  70.7940  64.0141
O  95.7834  73.5675  60.8257
O  105.9490  57.9876  60.5010
O  92.3195  65.6021  66.2571
O  94.0835  64.2615  74.4853
O  98.1201  75.3386  60.9210
O  113.3850  64.1450  88.6640
O  102.9960  72.5118  76.1544
O  105.7430  69.6454  89.9459
O  108.8560  66.2158  79.1265
O  108.1650  61.2258  82.2336
O  97.3896  70.6625  92.3238
O  106.4070  63.8498  89.9299
O  90.0910  66.1470  76.5828
O  95.9931  63.6280  82.5109
O  104.2720  67.8247  107.4270
O  99.9156  70.5982  105.3820
O  106.1540  68.0301  104.4170
O  113.4350  68.7266  105.1370
O  98.8082  68.3513  106.2260
O  91.1512  62.4290  111.1480
O  112.7160  72.5933  99.2841
O  97.6983  72.6827  100.4930
O  105.1490  67.8222  95.4960
O  112.6730  84.6053  49.4828
O  91.0349  88.0707  38.4563
O  94.2426  92.1106  55.1920
O  89.1170  88.6338  53.6913
O  96.4065  93.7967  40.8329
O  90.4061  75.7167  40.8477
O  99.7914  90.3876  37.8728
O  102.6020  85.5937  37.4596
O  113.4390  88.6148  38.2229
O  108.7200  85.8948  53.2024
O  111.1650  85.8022  39.8192
O  94.1035  94.3319  44.8436
O  89.4705  91.3893  39.2350
O  112.2460  85.0650  44.4318
O  106.0660  80.5550  38.6000
O  98.0299  90.7581  65.1404
O  88.1615  92.2964  62.1275
O  108.0250  86.2817  59.7727
O  105.4630  77.7041  65.2859
O  90.7402  75.8441  59.0669
O  99.3017  91.1130  86.7901
O  101.0100  79.5510  79.1645
O  105.0270  78.0384  93.7032
O  105.2360  76.8906  86.6107
O  111.8350  75.8726  82.8179
O  91.3673  93.9060  91.3254
O  88.4265  79.5372  92.8163
O  97.4939  77.6308  103.3490
O  98.5085  85.2767  101.9210
O  92.7886  89.4554  103.1980
O  99.7618  85.6642  113.6000
O  96.5723  77.9141  113.5400
O  96.7134  91.8267  104.0150
O  106.7740  80.4377  108.6590
O  95.6018  92.2257  109.8970
O  102.5650  83.6841  95.3563
O  90.6001  81.3671  112.7440
O  108.2310  95.0259  52.5917
O  88.3233  113.1110  39.7751
O  97.1440  105.7450  38.1303
O  105.0890  99.4612  48.3819
O  91.6368  95.1110  45.5698
O  91.2568  98.8268  44.0934
O  109.3960  111.1450  40.7357
O  94.4387  110.8750  45.4665
O  105.5890  103.5490  53.1775
O  99.9087  106.5200  55.0184
O  109.2440  98.3844  41.2075
O  101.3620  108.6140  48.3433
O  102.5210  110.1360  46.4798
O  91.8869  110.2510  53.8388
O  113.5200  102.9140  41.9459
O  88.3311  97.1873  49.9121
O  107.8190  95.2988  37.3309
O  111.0720  110.2790  64.5120
O  88.8106  95.7399  62.4949
O  99.9161  101.9250  70.2680
O  107.6340  94.8370  57.6948
O  98.2015  102.9200  74.9988
O  107.8720  101.6220  62.7009
O  106.3780  107.0120  73.1789
O  103.5340  103.1810  62.4787
O  98.3401  110.4250  68.8227
O  92.4941  108.3550  72.8094
O  94.0440  101.6100  63.8145
O  89.9441  106.7710  63.3043
O  105.6970  97.4802  56.7982
O  96.0461  95.3836  59.6688
O  104.6530  111.9520  74.8925
O  90.7273  113.6280  68.5820
O  100.2590  112.9420  58.7712
O  113.6050  96.6511  64.1991
O  112.9570  111.5270  75.2684
O  99.9978  101.4800  76.3386
O  102.0990  98.7943  86.4346
O  100.3650  106.2450  79.2101
O  111.2070  107.9620  82.1587
O  88.6280  100.9860  89.7492
O  96.6670  96.1961  88.1677
O  100.3600  113.2090  77.1834
O  108.8140  107.3140  76.6667
O  100.0120  110.6160  84.6904
O  101.1840  94.7490  87.6533
O  97.0530  105.0840  88.4507
O  102.5080  102.0800  89.6035
O  107.0650  100.4480  84.8270
O  94.0818  102.9600  95.2618
O  88.8519  100.0450  97.6394
O  94.4688  108.9900  105.7410
O  92.9534  96.0976  107.2600
O  90.4596  104.9760  97.8416
O  109.7700  105.6220  111.1200
O  89.9485  107.3170  109.1040
O  96.4608  99.9995  107.9810
O  104.3180  104.5100  110.9940
O  103.7640  95.0018  99.8345
O  106.5570  111.9020  104.0850
O  104.6150  95.1071  109.8180
O  92.6625  112.6060  102.8170
O  111.1910  99.2355  111.4680
O  96.4233  100.3930  96.3873
O  100.5240  112.9320  99.0611
O  109.0370  101.5670  111.9320
O  88.4026  103.2310  104.1440
