355
Terminal OH atoms
O  37.0845  41.7326  41.3234
O  38.8055  43.3211  46.0595
O  62.2770  47.0927  55.6225
O  38.4224  52.8396  49.8955
O  50.6505  42.2963  46.0170
O  35.8764  40.7489  35.5708
O  37.2390  50.7916  57.1250
O  59.7505  51.8586  65.8332
O  56.5926  55.5289  58.1218
O  36.0472  37.3846  57.4164
O  49.5354  44.5431  67.1270
O  48.7790  35.8568  69.2995
O  37.8934  49.2952  79.4559
O  39.0127  54.7599  92.8424
O  62.1882  35.5934  94.2517
O  50.9690  45.0946  97.5774
O  40.3946  49.0754  80.4224
O  59.1240  43.0441  82.8495
O  52.7460  38.5017  105.9330
O  37.8651  44.5722  109.7140
O  57.1518  37.0858  112.4140
O  39.5360  50.1163  108.2540
O  51.1788  45.6258  101.0060
O  57.5843  50.4040  99.4130
O  61.1275  59.7198  39.8146
O  56.0450  71.5013  51.2541
O  48.2249  76.6553  40.0185
O  51.9637  64.4609  40.9223
O  60.7937  66.5206  42.4744
O  57.3226  75.3325  60.2280
O  62.5908  64.5075  67.2288
O  47.6920  61.5281  69.3037
O  45.8080  73.6644  71.6498
O  38.6974  71.4478  66.4654
O  59.7051  72.7699  65.6669
O  63.3452  76.5901  74.1053
O  55.5678  75.4514  56.9322
O  43.0159  68.3163  81.1020
O  40.6095  64.0030  92.5655
O  50.2360  67.5801  81.2837
O  45.0523  59.8730  94.8845
O  46.6603  73.0521  89.3093
O  60.7322  58.3866  89.3192
O  44.1881  64.1858  97.9186
O  42.2198  69.5165  98.0314
O  63.0449  57.9980  119.0390
O  42.5571  58.4863  100.2390
O  38.4038  61.6665  116.4670
O  47.8087  56.4810  98.8967
O  50.9454  60.9042  99.6074
O  38.6743  71.0810  106.6090
O  58.7864  64.9561  111.6260
O  57.1439  74.2512  112.2750
O  36.2265  76.8428  108.2340
O  44.5929  67.5642  119.4070
O  37.5446  92.6306  43.3396
O  40.0909  79.8312  54.2460
O  56.5522  78.1990  50.5242
O  39.3096  84.1724  48.4727
O  41.2876  86.0461  53.9841
O  36.7521  87.2562  42.4849
O  51.1059  91.0835  38.0113
O  52.5568  79.8216  44.2970
O  49.3358  91.4490  43.1952
O  46.7055  93.6400  44.4362
O  57.9231  80.7624  77.4269
O  39.3251  93.0769  63.5707
O  38.7314  97.7991  64.2636
O  43.7497  79.5023  62.9845
O  41.2837  97.8449  65.0979
O  54.5083  79.3717  57.9220
O  37.5605  84.1993  65.1410
O  63.3282  94.1047  72.0794
O  35.6629  82.9216  85.8567
O  43.0126  94.4158  93.5469
O  47.9713  81.2623  95.8505
O  50.8741  83.0471  84.3417
O  51.6749  77.2935  93.8919
O  49.4096  94.6244  91.8996
O  38.9645  91.8866  92.2785
O  43.2759  97.4097  82.2942
O  54.5509  93.2162  90.1375
O  50.5654  81.6893  95.2019
O  62.8876  86.1419  97.5294
O  54.5953  86.8676  78.5364
O  56.3416  95.9190  84.8631
O  40.4205  90.4501  79.2710
O  40.2905  84.8735  118.2380
O  51.0324  88.2029  118.7550
O  59.2610  82.5695  104.5670
O  63.2685  92.9745  114.2510
O  55.5010  81.8880  116.0730
O  46.2025  79.1703  105.8690
O  49.0671  81.2770  110.3900
O  35.9827  89.0438  116.8050
O  58.0895  97.7238  117.7210
O  52.2292  80.3369  118.1980
O  62.1255  82.6150  115.2790
O  51.2628  89.5351  107.5350
O  50.0677  94.9628  102.6030
O  39.3645  97.4571  99.4807
O  62.9092  106.4530  52.8352
O  39.1648  101.9500  41.7929
O  55.6234  105.8340  51.9825
O  43.4497  117.9660  55.0413
O  42.1051  100.3340  41.4009
O  63.0825  110.9930  44.5829
O  59.9924  110.4200  51.8045
O  57.8085  119.2160  47.8043
O  48.7916  102.9250  69.5793
O  51.1354  112.2050  73.2682
O  57.2274  98.8540  67.0471
O  45.1587  102.2660  62.3547
O  50.2010  108.4420  66.0064
O  48.0994  107.5500  62.0689
O  58.9933  106.1500  56.7309
O  54.6823  100.2570  93.3949
O  56.1158  112.5000  81.8115
O  38.1159  110.9050  80.8055
O  62.6558  102.4470  89.3166
O  49.6162  111.5780  101.2090
O  54.9796  102.7090  98.5154
O  60.5589  110.6370  114.6080
O  44.2947  109.2250  111.0720
O  49.8738  100.6270  118.2670
O  49.7131  108.6240  111.4460
O  56.9840  107.3280  101.6060
O  41.3162  109.8690  117.9780
O  50.2234  102.0150  115.2130
O  55.6658  118.7250  112.4560
O  42.9890  116.3430  114.1950
O  53.9128  108.0470  114.5260
O  52.8040  119.0490  113.5070
O  53.8511  118.9310  107.2200
O  88.4103  54.3936  38.1464
O  80.9194  38.4927  52.0167
O  82.5497  56.3517  50.1505
O  88.2493  46.7575  44.3193
O  66.6666  52.4529  37.0758
O  83.6866  49.2293  54.5615
O  85.3307  51.1352  55.3271
O  63.9773  50.7317  61.4856
O  75.5554  38.3249  58.9907
O  91.2761  37.7359  73.4382
O  75.7650  46.6576  64.0172
O  65.2518  48.9583  57.2792
O  76.0529  55.3591  74.0714
O  65.8638  48.7156  87.5836
O  77.7442  37.5186  88.8141
O  71.0565  53.0999  112.3170
O  66.4989  35.9574  107.6620
O  81.0777  51.7150  110.5640
O  82.6580  39.6297  105.7990
O  88.5561  46.2691  108.8090
O  81.4377  36.2008  110.5940
O  70.7342  39.2710  102.6550
O  76.2140  51.7414  115.6940
O  83.0092  70.6332  39.9987
O  77.8251  66.0993  48.8829
O  73.9145  56.7260  53.3510
O  67.0293  58.8713  36.2525
O  84.0181  68.5368  54.8203
O  82.4340  65.8062  73.5489
O  68.0373  60.3163  58.2041
O  64.5361  75.9576  58.6359
O  87.4771  70.4779  63.1057
O  91.0718  67.1603  65.5280
O  66.7168  72.0928  71.6030
O  79.2824  67.8235  58.0701
O  75.9354  69.8946  61.7148
O  71.6097  76.8778  57.5832
O  71.5052  65.6062  73.1673
O  84.1440  74.4802  61.9812
O  70.0617  63.7952  82.1152
O  77.4616  63.9924  95.7588
O  84.3580  58.6574  105.3070
O  64.9268  71.6823  108.3880
O  63.9758  68.2426  115.1960
O  83.7038  70.8844  102.0150
O  76.9308  77.2787  103.2300
O  75.1071  81.5485  71.4575
O  79.0132  86.6748  60.8776
O  85.5824  84.4645  68.5396
O  74.0273  96.8813  60.8702
O  72.6566  89.5626  62.8678
O  84.1365  88.4162  61.9966
O  69.1749  78.2680  62.9469
O  74.7089  79.8127  90.4063
O  74.0531  97.7596  78.4091
O  89.7681  96.1692  91.2375
O  65.1200  89.9726  81.2204
O  86.6943  91.1425  97.2744
O  65.4649  89.3306  101.3740
O  74.8956  78.6331  110.8710
O  90.2120  86.2055  103.4230
O  80.3083  96.6038  117.9510
O  64.1275  87.5680  107.7970
O  71.1879  89.6182  111.9600
O  87.3231  93.5889  104.0930
O  85.2630  90.6654  99.5048
O  85.2066  112.7330  52.3252
O  81.3892  108.4270  53.9983
O  82.0927  105.7300  49.3065
O  69.1277  112.5310  45.4975
O  77.8955  99.6600  39.5743
O  90.9149  111.3750  53.8048
O  86.1355  99.1345  69.9834
O  66.3259  111.5220  61.3400
O  84.5009  115.2440  73.4918
O  79.2080  117.5040  73.1706
O  82.8293  109.2890  74.5623
O  88.7106  109.1760  74.4350
O  85.0505  103.7490  75.9295
O  91.2314  99.9150  60.6423
O  79.9034  98.7511  84.9614
O  80.1661  117.3870  92.1464
O  66.4083  116.9610  99.0352
O  79.2747  102.1690  108.5030
O  72.3604  109.0510  117.3270
O  66.6511  106.1260  100.2250
O  91.1561  102.2090  110.9600
O  100.4010  36.4010  46.1837
O  114.9030  50.5261  51.6943
O  98.4999  40.3117  38.4236
O  106.8260  36.2433  42.2744
O  108.5900  45.5069  44.9809
O  106.0700  35.9952  36.2791
O  112.5240  50.5850  40.8456
O  118.9880  46.5386  36.6467
O  97.7369  43.4831  65.7096
O  103.2930  45.3839  59.0806
O  111.3330  45.8373  76.4057
O  115.4830  39.7709  68.9458
O  106.3180  43.4619  67.0737
O  107.6230  51.2690  72.9049
O  96.4828  45.4491  62.0129
O  106.2450  36.3619  96.9494
O  112.2330  49.3178  85.6888
O  93.1801  49.2032  85.9231
O  112.5060  42.8431  93.4716
O  112.3810  47.9640  83.3456
O  107.2750  43.2494  96.2106
O  98.8482  44.0903  78.6673
O  114.9780  55.8766  95.2563
O  116.1830  42.4307  82.4899
O  99.3312  53.0111  81.2865
O  111.9380  40.4503  94.5631
O  108.0340  50.8526  94.6306
O  117.2660  46.4197  87.9463
O  115.9240  36.8516  97.4426
O  99.1886  52.1412  114.0020
O  99.0942  40.2826  109.0570
O  116.3830  55.3656  118.0130
O  112.6870  44.7605  118.2780
O  94.8552  52.3456  98.9895
O  108.7260  37.2998  111.1680
O  107.0970  51.7742  106.9070
O  115.0480  47.2597  107.9950
O  118.5530  38.7743  118.1420
O  106.9170  39.3708  106.7610
O  113.0980  61.1488  42.8664
O  113.6310  69.1723  52.2109
O  119.1180  56.6010  48.5741
O  115.0340  61.5441  55.5315
O  98.8096  76.2354  36.4758
O  112.5930  70.1694  76.0212
O  106.2950  66.7666  58.2291
O  115.0990  56.6266  58.0123
O  106.4440  58.1347  70.9517
O  117.5530  57.3437  71.5956
O  111.5890  66.4788  63.8389
O  114.5060  63.1851  62.0379
O  95.5698  66.7778  69.6191
O  113.5580  76.5651  76.5988
O  118.5980  63.7357  57.4232
O  107.9540  69.7394  85.3202
O  106.6550  74.3690  85.3677
O  96.6816  58.0368  87.8846
O  113.5010  71.4137  93.9527
O  112.5240  72.6854  81.4656
O  92.0879  60.2583  103.0400
O  113.4960  67.7855  111.1040
O  106.0420  59.1468  102.3530
O  111.3670  57.6787  110.5720
O  107.1540  70.5136  103.7850
O  114.1370  57.8692  119.1360
O  114.9250  76.0241  109.8970
O  113.7820  58.8377  106.9800
O  108.1020  62.3144  100.2870
O  112.2810  62.3489  110.1020
O  115.9640  60.6178  100.9070
O  114.7790  64.2249  115.4530
O  110.6910  75.9803  114.1620
O  101.0720  94.9191  53.1888
O  100.6200  85.7579  47.1042
O  97.5923  77.9678  38.1662
O  112.6800  96.2487  55.5992
O  96.6187  82.8036  46.9707
O  109.1800  84.7723  44.3032
O  111.7930  78.3270  38.9271
O  114.1410  81.8395  58.5261
O  94.6061  87.0398  57.3659
O  111.0480  91.4790  72.9438
O  106.0860  82.4533  72.0930
O  98.5440  91.0385  62.8352
O  95.0778  93.8440  71.9051
O  117.7750  94.9822  69.4151
O  92.8488  78.0440  77.3083
O  117.2260  82.3563  90.0871
O  92.0980  92.0008  84.4738
O  102.8770  87.5254  83.5264
O  102.6000  84.6669  84.2517
O  106.4600  80.1442  82.5415
O  115.7940  82.6613  95.0358
O  108.4420  83.5261  79.5169
O  115.5580  90.7845  84.7978
O  117.8440  87.9017  94.4185
O  105.4560  77.8590  90.7982
O  98.6776  93.9441  82.9560
O  108.0040  82.2819  81.9730
O  111.3590  90.6356  105.0990
O  106.6400  80.1390  112.2130
O  98.0697  96.6663  101.8620
O  107.1060  88.4541  101.6230
O  111.7720  81.8182  113.5460
O  108.7440  82.3513  111.8560
O  115.6510  78.3710  118.3030
O  118.5000  101.2110  40.5675
O  93.9059  114.0250  40.0429
O  97.7265  110.9590  38.3462
O  92.5455  107.9870  51.4953
O  114.5530  101.0930  45.6363
O  104.9400  109.7180  47.6176
O  112.2330  117.3980  42.6485
O  99.6700  112.3310  55.6183
O  113.9720  116.2650  45.1256
O  91.6545  98.5201  40.8173
O  109.1230  100.1450  60.4402
O  98.2227  112.0680  57.9473
O  112.8360  107.7950  70.8358
O  112.1760  109.5070  62.4065
O  102.0280  104.0800  76.2875
O  117.9170  100.4910  78.4393
O  102.4140  104.1850  91.8353
O  98.5044  109.2680  86.1411
O  115.8940  113.0180  91.0835
O  116.8230  113.8690  85.5754
O  104.6620  108.8540  84.8288
O  109.0200  111.5400  95.9821
O  104.0250  111.4280  84.2819
O  109.2110  118.9810  92.1786
O  105.1950  119.1280  87.6824
O  94.6908  100.9050  115.9560
O  95.4565  113.4580  99.2170
O  113.7460  107.7480  117.4050
