614
Terminal OH atoms
O  49.7493  39.9344  39.0462
O  36.0717  46.5855  38.3027
O  51.6300  48.4002  37.9711
O  44.8379  48.8674  43.5841
O  41.0698  44.0627  51.3521
O  45.7105  42.5904  46.9156
O  50.2565  36.6365  42.9026
O  47.8516  53.2909  50.2465
O  41.6535  47.8034  43.5878
O  58.8512  46.3328  39.0014
O  43.1492  40.4152  51.8359
O  48.5170  50.2750  39.2203
O  53.0823  48.3123  46.0303
O  37.6684  51.5302  44.8692
O  55.9126  50.2922  49.6555
O  46.9514  53.0678  70.5519
O  41.6758  41.9662  60.6831
O  57.8189  36.9080  62.6820
O  59.0108  47.5446  63.4181
O  35.8242  48.1040  54.8967
O  47.2630  52.3857  56.7180
O  51.2129  53.4036  66.1792
O  35.5539  48.1399  65.6229
O  59.3323  52.7871  70.8608
O  57.8950  36.1100  55.3322
O  37.0004  46.0636  87.7148
O  46.7617  53.5088  78.7771
O  40.3988  39.4667  89.5795
O  55.6253  39.0559  73.3634
O  40.1631  49.6237  85.8207
O  47.0167  38.6493  81.4971
O  44.8078  44.1133  87.8843
O  56.5541  48.3580  72.2941
O  43.6622  39.2809  82.6883
O  42.9783  51.9163  87.8474
O  50.8082  42.6246  72.7267
O  54.4116  53.4041  85.5815
O  58.9397  53.6878  80.1051
O  57.8731  35.6576  83.9614
O  39.0891  44.9448  97.0444
O  53.6825  46.9657  101.4890
O  54.2055  44.7319  107.5230
O  53.5768  37.3949  96.6116
O  49.6840  41.5865  105.4180
O  58.7346  39.7741  99.9820
O  41.8155  44.8941  93.3721
O  55.8406  51.6502  100.8410
O  53.0657  44.7093  102.7800
O  50.5283  48.4599  105.6910
O  39.4887  43.3930  99.1378
O  44.3033  37.8300  102.7690
O  46.3577  35.9409  103.0850
O  53.9926  48.1070  106.3410
O  42.8259  47.3052  93.8120
O  57.1771  50.2270  102.6740
O  44.7830  41.0994  108.1260
O  48.5287  56.0906  39.8944
O  49.7391  54.4931  36.6462
O  37.4691  63.4327  47.0326
O  38.0218  56.0573  41.9308
O  37.2450  68.0644  44.3991
O  40.8256  58.5442  35.6699
O  56.4113  68.5623  43.3689
O  55.0076  63.9030  41.9651
O  45.9802  71.5643  44.9091
O  49.1444  58.8048  37.7204
O  59.0236  69.7814  65.4785
O  41.7417  54.5094  63.2173
O  47.9379  65.4669  60.9467
O  38.7503  65.4764  71.1436
O  57.3631  55.3351  54.5581
O  47.0909  58.5450  61.9035
O  39.7189  59.2026  54.2718
O  38.2805  58.8393  66.0810
O  42.6758  67.0918  63.6531
O  38.8340  64.1527  66.0429
O  36.2825  70.4563  62.8826
O  46.9081  65.4780  65.7366
O  49.3866  66.1368  67.1382
O  38.6346  64.5892  55.2382
O  54.4891  68.6605  57.9970
O  47.2211  55.5355  59.9867
O  54.0816  59.2437  64.7591
O  37.3274  68.2895  65.6146
O  58.6240  66.9361  62.1843
O  40.1603  68.2921  53.7849
O  46.2618  64.1459  89.8957
O  41.7173  65.3331  80.4765
O  50.2019  59.8186  74.2334
O  36.0912  66.4910  86.5535
O  37.4604  54.1747  88.2505
O  41.4180  63.6319  97.9556
O  46.1342  65.2332  96.5885
O  39.9686  61.4583  94.6216
O  54.4013  53.8898  95.4806
O  40.1722  68.9563  94.7577
O  38.8481  63.4281  98.8626
O  46.2702  53.6450  97.9727
O  52.2291  88.2580  36.1627
O  43.7887  81.7737  38.6876
O  42.2376  88.9956  50.7994
O  37.6218  75.7564  45.9170
O  40.8332  72.6791  48.3881
O  35.9947  89.3045  47.4852
O  40.9932  89.1789  42.7165
O  42.9944  80.2335  47.1535
O  39.8825  73.9282  41.4304
O  41.8905  85.3752  60.5649
O  41.2564  77.1658  62.1484
O  38.6790  73.7558  61.1657
O  44.7631  77.8645  67.3379
O  45.5104  82.3290  69.9039
O  53.3977  88.6877  64.1207
O  36.7530  76.4031  55.7484
O  44.3219  72.9864  57.1745
O  46.5152  77.3455  71.2183
O  59.5055  77.4183  71.3422
O  38.2497  84.6617  78.5040
O  38.4542  84.5256  72.5855
O  45.0916  83.1327  74.9996
O  50.6165  83.6130  85.8243
O  56.3860  77.5825  81.9809
O  59.4970  75.2785  89.4215
O  58.1915  77.5789  88.7379
O  44.9991  88.9591  80.7448
O  47.5695  76.8370  88.6715
O  54.7348  73.8210  88.4935
O  38.7256  89.9294  74.9102
O  38.5072  72.6383  77.4398
O  57.4583  82.9619  81.2335
O  56.5234  75.1944  74.7811
O  59.9087  89.4301  78.3492
O  40.0183  76.7353  94.9105
O  57.1391  74.9821  98.3949
O  48.1445  79.3425  90.7720
O  48.8375  90.2017  104.6340
O  53.8179  74.8443  105.6710
O  56.2494  79.4513  95.5974
O  40.1765  85.5445  107.8190
O  46.2118  84.9474  105.6110
O  48.5116  81.2107  105.9850
O  55.0689  86.2269  90.9156
O  38.6766  93.6378  47.0340
O  58.2657  106.6250  47.1639
O  54.3968  102.0840  50.1187
O  53.2166  107.7360  43.9636
O  45.7266  102.6390  44.6801
O  36.7363  108.6280  46.1880
O  51.5093  106.5450  49.9929
O  39.5721  95.4232  49.0346
O  56.7812  94.4233  42.3625
O  53.6805  91.3519  70.1842
O  43.2575  103.8460  68.3013
O  38.3953  107.5860  55.8780
O  53.9716  100.3360  63.7380
O  57.0589  96.4630  61.8859
O  57.0419  105.7230  56.3619
O  42.0150  104.8300  55.5158
O  36.3934  104.8610  59.6811
O  42.6430  91.8377  69.4517
O  37.1087  107.6960  66.3348
O  59.8108  107.7970  57.8086
O  43.2404  98.0532  74.4997
O  51.3573  92.5189  87.7794
O  58.3853  94.1400  89.3637
O  35.6810  105.8520  84.1346
O  38.3024  98.8540  80.1988
O  39.1154  95.6923  85.0703
O  58.3921  97.3807  74.0921
O  50.0183  97.1882  74.1575
O  43.0794  100.0320  78.0719
O  50.4076  99.0101  84.8174
O  51.7420  94.8974  74.2058
O  35.8426  106.8760  76.7641
O  47.0900  91.4980  78.5177
O  57.1332  101.6600  82.1520
O  42.9231  103.1130  72.1783
O  53.7259  96.1216  72.1017
O  35.3260  103.6800  101.7680
O  37.0145  98.8752  104.1310
O  46.6871  96.2361  94.6702
O  52.5434  91.9209  105.3030
O  45.3615  100.5200  101.2780
O  54.8115  94.2554  104.5250
O  48.2635  99.8401  92.0253
O  37.0105  97.1208  101.1100
O  55.4250  99.1531  93.0058
O  41.2396  105.9410  107.9100
O  70.3324  48.0410  44.5422
O  81.8839  49.8284  48.4913
O  74.1115  40.6078  38.1039
O  64.2256  52.4057  53.4998
O  59.9501  49.3941  36.6053
O  62.8958  41.8547  46.9529
O  64.0377  45.6268  39.0703
O  70.3897  53.2273  51.4104
O  77.4481  44.8262  43.2679
O  77.2867  47.9410  49.3391
O  61.6265  47.9880  45.8051
O  82.0676  37.5669  37.9074
O  83.4492  47.5172  39.6017
O  83.6639  50.0877  38.8292
O  65.7362  37.7012  59.3586
O  81.8837  37.9871  69.1836
O  68.7600  41.6154  63.5465
O  74.6344  53.0514  63.0461
O  70.0793  52.6824  62.4851
O  67.9982  35.6216  69.4881
O  70.2908  35.8585  57.2529
O  76.9982  38.4293  78.7959
O  71.6456  45.4924  72.1323
O  64.8940  49.8606  82.2186
O  62.2495  49.9828  81.7603
O  61.3641  42.7088  82.9785
O  59.9647  44.3079  80.8029
O  67.7408  51.3388  90.4276
O  83.7463  42.8459  73.9598
O  69.5393  40.5178  75.8545
O  76.5270  39.8787  72.5910
O  79.0190  38.5020  92.7388
O  78.7478  49.7352  98.1513
O  60.1335  36.5248  107.3330
O  64.5556  36.0366  106.5560
O  82.5657  47.7264  94.2792
O  83.8571  36.5568  90.7307
O  79.1643  51.1910  91.1965
O  78.4339  36.8020  90.5936
O  69.6348  53.0377  102.9390
O  70.4712  42.2394  107.0630
O  63.2489  53.0286  90.3077
O  64.3358  61.6187  48.3661
O  76.7979  68.2428  45.0182
O  78.4132  64.5648  50.9878
O  77.7716  56.7935  50.6721
O  72.4598  67.7098  53.1682
O  76.6827  58.1124  52.7045
O  70.8455  68.7732  48.6026
O  70.1352  59.4272  47.6692
O  83.8954  59.3306  49.8887
O  82.1325  71.8144  37.2828
O  63.8546  61.3686  57.6506
O  67.2710  54.1404  58.4458
O  64.7937  66.3709  66.7756
O  61.6443  65.9921  68.3862
O  70.9087  58.6318  59.3494
O  77.5277  64.2123  70.8309
O  66.2572  60.9896  67.0497
O  66.1678  61.9484  69.7583
O  82.1523  63.4620  57.6048
O  61.8901  64.7213  58.1668
O  79.1179  54.8896  56.5487
O  66.9142  66.7506  65.0674
O  75.7057  66.9208  68.6297
O  63.7760  71.3997  63.6415
O  77.5948  54.6914  85.1340
O  80.6080  66.9776  80.8950
O  83.2496  60.8923  87.2074
O  62.3017  57.0400  86.1303
O  78.9850  55.5257  75.5568
O  66.6322  55.8411  75.4639
O  72.6727  60.1651  73.5828
O  64.8379  68.8146  84.8101
O  79.0592  68.8890  79.9242
O  82.3013  69.6256  87.9454
O  68.4455  69.2241  99.7153
O  72.2261  69.2151  103.2740
O  66.4958  57.2142  101.9910
O  63.3193  57.6174  92.2732
O  78.9711  61.9236  95.9257
O  75.5979  54.4896  104.6120
O  73.9363  66.2452  106.0700
O  75.2199  69.3233  100.3770
O  64.5450  60.0355  96.1329
O  63.7043  63.0156  95.2526
O  82.6178  69.8763  105.4670
O  73.1981  70.6089  98.2101
O  79.9899  71.4629  104.4180
O  81.1056  82.5525  36.6053
O  80.1290  88.8985  52.8455
O  81.4001  87.9070  40.3335
O  75.2233  89.3216  46.7977
O  81.8388  86.3513  48.2334
O  82.9434  75.2508  49.3525
O  63.2910  86.3930  70.8407
O  81.7151  82.6692  58.6195
O  69.8901  73.5665  63.7387
O  82.0447  74.2255  58.9240
O  75.7232  89.3758  64.2980
O  64.2001  75.4493  58.5925
O  81.8245  86.9611  60.7865
O  81.4509  86.0013  66.8473
O  81.8644  72.8947  67.8070
O  84.2408  87.8631  64.5747
O  78.0014  87.5023  54.2658
O  83.3577  84.5628  57.5862
O  78.2685  85.0710  62.2341
O  78.7006  84.9553  54.2051
O  82.2414  77.8029  72.9722
O  70.8021  89.4163  83.1465
O  60.6667  79.3160  86.0308
O  82.0063  85.7587  75.7508
O  79.5022  84.8105  76.1111
O  76.8224  75.7275  79.8816
O  73.0491  80.8288  73.4060
O  70.0576  83.9865  84.6939
O  80.9679  88.0721  89.1247
O  68.8103  83.1751  82.4867
O  72.9989  84.3319  79.8736
O  70.7502  78.4390  82.5926
O  83.7623  87.3712  78.2383
O  60.6514  83.4443  99.7947
O  74.6035  85.6518  93.5706
O  80.4672  76.8263  103.3680
O  65.1505  79.0937  99.9359
O  81.7760  75.3280  92.2458
O  82.7435  75.2376  98.3195
O  78.2017  83.4357  95.1696
O  75.8736  77.4994  104.4360
O  62.7738  77.8466  99.9726
O  59.9042  82.6237  97.3786
O  69.9186  83.9888  91.6946
O  68.9075  82.2940  103.0560
O  80.9524  89.0129  97.6221
O  83.2134  93.4904  47.5112
O  74.0380  95.1232  48.1276
O  61.2445  103.3470  53.2620
O  65.5828  91.3501  39.8627
O  72.0307  103.1880  39.9927
O  78.8011  96.1211  53.0847
O  70.7185  101.0070  43.7477
O  74.5233  104.0520  38.2895
O  82.3486  96.3659  43.1023
O  81.8454  94.1610  52.4714
O  75.9612  91.6350  48.1155
O  63.1406  91.2143  37.9141
O  70.5315  108.4050  35.3427
O  74.5954  103.8700  57.4684
O  78.6362  91.3696  67.7907
O  60.1310  96.1246  64.0140
O  68.8535  104.5880  55.8452
O  83.9873  95.0700  62.6077
O  73.7818  97.1898  58.9179
O  70.8440  101.2740  67.7673
O  62.1865  106.2890  66.0716
O  65.9717  95.3059  59.3717
O  75.9466  90.3387  60.0749
O  65.4169  108.0620  65.2220
O  71.0691  97.0838  66.3664
O  74.9206  99.4302  58.1255
O  82.7347  103.8870  61.0668
O  74.0262  92.1811  69.0933
O  71.5321  104.6520  70.5070
O  75.5021  95.0294  62.7990
O  64.7020  95.5590  62.1189
O  69.6485  103.2140  69.2248
O  74.8518  97.0153  72.9433
O  70.7501  97.9814  74.5274
O  71.4825  105.7280  83.2454
O  67.8410  92.4825  85.0885
O  79.0968  102.3350  82.8151
O  80.7583  97.2254  75.0594
O  68.4932  101.7530  77.7142
O  66.0761  93.9398  87.6292
O  68.8871  100.5900  84.7626
O  66.1303  100.3460  78.7702
O  82.1634  101.7330  87.1428
O  83.4723  94.3043  73.7319
O  60.3992  99.7966  86.4068
O  72.8262  95.3228  98.0979
O  67.7730  97.2368  100.3250
O  72.5404  97.1432  101.2420
O  73.1516  107.5350  106.8530
O  83.5662  108.2240  101.2340
O  67.5165  93.2877  100.5720
O  66.2623  95.4911  98.3100
O  75.4739  99.6483  97.5404
O  79.4010  107.7060  104.6970
O  77.8995  101.5480  106.8020
O  80.2823  97.2582  102.7580
O  83.7264  106.2210  96.3177
O  90.1576  38.8709  48.8623
O  104.0690  45.6943  43.3846
O  96.6211  35.9623  35.7904
O  93.9096  36.1232  41.4479
O  88.5296  38.6638  46.2687
O  93.2810  46.3391  50.5580
O  104.5670  47.2790  51.0782
O  106.7460  48.0949  46.7081
O  86.2068  49.5321  47.2352
O  106.4340  38.0861  38.9649
O  106.5190  46.0723  37.0047
O  93.9811  53.7231  36.8087
O  91.5050  53.5959  49.2983
O  99.1450  40.8313  61.0406
O  90.0898  42.6536  67.2263
O  92.2924  40.7572  70.4122
O  100.4090  43.1720  61.5184
O  95.2836  48.1732  63.1876
O  87.4928  39.6889  71.7299
O  91.4797  50.0314  55.9132
O  90.7601  44.5941  65.0612
O  95.2661  50.6340  64.2509
O  105.1560  50.9871  64.6456
O  97.7634  43.4244  79.4174
O  91.4639  37.2662  83.9365
O  97.3028  47.3858  72.1414
O  86.9736  37.6680  85.2524
O  101.8390  42.5659  83.1430
O  88.8802  53.1925  86.0345
O  91.1640  45.4960  87.7578
O  105.7810  39.8845  81.9117
O  97.1242  42.2156  84.8024
O  96.2483  36.1103  88.5022
O  101.2540  44.1600  89.3329
O  95.2558  48.7854  73.1661
O  105.6800  41.4719  72.5728
O  101.9040  47.9336  89.8227
O  107.8990  49.2974  81.0454
O  89.5914  46.4019  90.7385
O  85.3997  52.2576  95.4977
O  99.7269  49.3017  99.9248
O  90.1521  48.3357  99.9376
O  90.7382  51.2047  97.3173
O  98.5099  50.3950  93.5734
O  96.4275  51.6232  94.5583
O  99.2974  43.5237  91.0740
O  106.3430  45.2525  94.8496
O  105.4240  35.6409  108.4820
O  91.5314  37.1125  90.4169
O  106.8040  55.3481  45.5325
O  84.6469  69.5741  48.3715
O  92.9567  66.4284  46.2016
O  87.0194  62.9523  50.7116
O  88.7838  65.1907  49.7682
O  93.0852  54.3205  39.2824
O  105.7400  56.1198  43.2145
O  90.1201  55.3115  50.7842
O  86.6692  58.8404  42.7895
O  107.5790  69.8063  47.6796
O  95.7245  60.9844  52.2089
O  91.1746  70.0604  41.4921
O  99.6069  69.8101  51.6199
O  101.2940  64.0524  46.6827
O  108.3310  59.4856  36.4586
O  105.4770  54.6298  67.6938
O  85.2870  64.3791  66.2020
O  97.4685  63.6274  62.1276
O  85.5727  57.8226  56.8739
O  86.6304  68.7045  69.3724
O  87.6228  60.9329  69.1846
O  91.0859  70.2003  55.3056
O  107.1150  69.7121  65.8404
O  90.3025  65.6554  58.2559
O  103.3550  66.4435  60.8607
O  92.1260  60.6170  67.4295
O  107.1960  67.0906  69.7585
O  85.2468  61.1437  54.2237
O  107.9840  60.6915  68.0668
O  85.0938  72.0045  66.1589
O  99.4958  60.9963  73.9819
O  90.3813  62.5691  84.3343
O  93.2278  54.3090  83.6114
O  102.4000  55.0952  82.5575
O  96.5060  66.1077  88.3407
O  103.3670  64.7755  72.1413
O  98.2257  71.7717  74.9353
O  101.8000  56.7477  76.4288
O  86.4405  55.3532  73.9076
O  99.8309  57.4927  74.5556
O  108.2980  65.4224  82.6289
O  98.2025  69.4031  86.7847
O  108.5100  56.9217  88.6969
O  105.5820  69.5648  96.1559
O  86.8928  63.8652  91.7143
O  107.3850  60.5065  101.4160
O  84.6593  53.9152  107.8730
O  97.5687  60.9528  100.0420
O  90.3976  63.6237  93.5045
O  103.4530  56.4849  94.7643
O  102.4710  64.7984  95.8929
O  85.0117  69.8459  104.3390
O  88.4402  60.6641  104.5790
O  84.8295  59.0666  97.5784
O  101.8720  59.2360  101.9110
O  87.5729  57.4218  102.6790
O  100.6190  60.4153  99.6365
O  100.6660  55.7139  91.3039
O  96.0002  69.8236  97.1197
O  86.8220  66.6459  107.1270
O  102.3850  54.6214  105.6350
O  103.8700  63.5511  100.6980
O  102.0020  58.0868  105.4620
O  87.9367  59.1766  106.7490
O  101.7440  80.1202  42.7827
O  92.3343  84.7007  48.2000
O  94.4581  73.9266  41.5402
O  89.7590  85.2616  48.8636
O  107.1200  77.4172  40.5309
O  104.7010  72.5899  36.3783
O  103.4070  88.1481  35.6506
O  85.6132  75.3202  55.2589
O  90.3694  83.7550  70.6150
O  103.7010  79.5027  69.2564
O  104.0150  77.2980  71.4609
O  99.6191  77.7493  63.0187
O  84.5677  77.9671  57.0431
O  90.7157  87.1056  55.0891
O  99.7313  81.6122  63.3451
O  99.4109  85.9726  55.1153
O  106.8890  73.0150  64.6732
O  93.3910  74.2795  55.7635
O  101.8190  89.6202  63.8338
O  97.2163  81.0895  61.6627
O  89.6533  86.6531  65.9211
O  100.1590  82.5778  59.6188
O  85.5398  89.0649  58.4672
O  102.8800  86.7111  68.4700
O  85.3763  86.8874  56.8553
O  94.7407  71.9118  80.2855
O  103.2600  74.1628  76.3149
O  91.2560  77.2739  89.1522
O  86.3522  78.7275  75.4888
O  91.9763  79.6116  77.3339
O  102.1590  81.8496  89.9213
O  102.0400  80.2699  77.4029
O  108.2150  80.4798  72.7566
O  98.8169  85.3815  79.3910
O  87.2189  78.4288  72.9845
O  108.6040  83.7576  75.6668
O  98.2664  82.3575  86.8409
O  92.6389  80.7543  86.5739
O  97.9802  78.6288  75.6349
O  85.1450  88.9571  71.9398
O  86.7833  80.4781  92.7123
O  85.4167  73.3626  102.8530
O  102.4480  76.5286  97.5063
O  96.8958  89.4716  106.7720
O  97.5225  77.9138  100.6780
O  89.9555  77.3476  93.3823
O  97.6852  76.6275  106.5860
O  104.5880  83.3884  102.4670
O  104.7020  86.5270  106.9200
O  85.3905  81.1103  94.9763
O  105.7420  85.1637  94.0966
O  94.6475  79.3134  101.1070
O  98.1050  85.4018  96.7943
O  99.9745  81.4722  108.2330
O  93.2242  81.5483  101.3830
O  102.1650  77.4326  92.3846
O  90.1562  81.2210  90.8698
O  91.4400  78.5340  97.5636
O  103.6910  77.6067  107.5310
O  89.0618  89.9578  98.1348
O  87.1665  102.0190  42.0623
O  104.4490  92.1747  42.3187
O  90.7104  95.5021  42.9003
O  85.0713  98.0024  36.7386
O  93.7499  90.1873  50.3769
O  94.7726  103.5250  44.9083
O  89.6555  101.4400  37.9672
O  104.8490  104.6930  51.4690
O  105.6860  102.5020  39.9673
O  98.5852  105.2370  40.1414
O  103.1510  107.4940  50.5072
O  106.9070  100.9740  47.3184
O  98.8382  101.9320  40.9855
O  92.3964  103.8740  46.6490
O  107.5590  93.2475  50.1132
O  87.1781  96.6647  37.7955
O  86.7378  104.0540  69.4251
O  95.6815  97.4018  54.6786
O  87.0084  92.1993  59.3333
O  99.9944  91.0164  54.6864
O  92.2338  95.5953  67.0225
O  102.7190  108.3520  57.2998
O  99.6768  92.3403  59.7600
O  93.3359  100.3660  69.9626
O  95.0991  90.7746  61.1506
O  99.8608  101.3570  63.2566
O  84.6798  92.7614  54.5011
O  101.4990  98.3068  58.1643
O  102.2130  92.3755  69.8110
O  106.6030  93.4143  55.2902
O  95.9915  106.9060  57.3199
O  100.3970  100.1600  55.0739
O  93.4043  97.4448  71.2544
O  89.6060  97.3269  78.3858
O  100.0880  103.2370  76.1175
O  97.5150  96.2272  81.1504
O  88.1182  93.0133  85.0756
O  93.3639  93.9411  75.4126
O  91.6581  95.0693  80.4435
O  107.7040  94.9350  82.4509
O  95.3742  97.8122  80.3956
O  90.4967  107.1150  80.1296
O  107.0610  106.0740  78.5798
O  88.7994  96.0153  72.5058
O  107.6100  92.4848  83.5226
O  93.8378  101.8670  89.5061
O  107.7250  93.3064  105.3050
O  85.9688  105.8210  102.4340
O  101.0000  90.8413  105.4500
O  101.5780  105.6220  99.7826
O  91.2657  102.1590  99.0630
O  86.6292  107.0620  96.8451
O  91.1949  92.3661  100.6720
O  97.8482  94.7239  97.0798
O  94.1663  98.2160  96.1974
O  95.6578  94.0639  103.8870
O  84.0533  101.1040  95.7556
O  105.3860  107.3390  100.5260
O  103.7230  99.8231  102.1070
O  95.5441  100.2980  90.9390
O  108.1780  108.5320  104.7320
