620
Terminal OH atoms
O  56.5388  37.9624  44.5884
O  45.7993  43.6442  50.5367
O  47.0566  45.4754  35.1613
O  42.2001  47.4045  44.8415
O  34.1063  35.0845  49.5603
O  56.8670  46.5724  41.5460
O  49.2350  45.2003  44.3308
O  39.0587  51.3512  44.1408
O  56.1872  38.7164  37.5555
O  41.8578  41.2599  42.5419
O  47.6028  36.1500  50.2056
O  50.4654  38.0056  40.0268
O  39.4727  43.6385  49.9883
O  39.1756  34.7631  38.1923
O  53.2745  47.2129  35.4327
O  34.8762  44.2730  43.8105
O  49.9207  36.4618  35.2837
O  35.3849  46.3772  52.4655
O  46.2358  42.7280  62.9576
O  38.8171  48.5487  63.4155
O  34.2373  36.0771  54.8357
O  35.6755  41.5073  55.2440
O  42.9039  46.8824  62.6545
O  55.8636  46.7255  61.4628
O  50.0252  34.4530  58.3731
O  36.7608  35.3131  77.0414
O  47.8061  37.7881  79.5432
O  39.3708  35.6278  76.4887
O  54.1193  36.3539  76.1504
O  42.3033  47.1375  83.3047
O  49.6281  37.3196  69.5774
O  47.2242  47.5464  80.3317
O  36.1852  40.5368  79.9971
O  35.7218  48.5623  70.0451
O  41.4634  39.4966  99.8975
O  47.3014  45.5552  100.8350
O  45.8765  35.0906  95.7824
O  36.1445  44.3945  95.5574
O  54.1684  35.9766  97.5295
O  40.9056  45.0922  88.9313
O  43.7220  49.1279  88.6875
O  45.4589  44.4562  92.3131
O  48.7781  45.1629  95.6908
O  56.6508  37.2122  90.9161
O  44.7827  36.3751  86.9281
O  48.5338  40.1937  93.0837
O  41.1317  41.0846  97.0244
O  45.7883  43.0980  86.9811
O  54.4743  50.0588  93.9001
O  57.1164  49.2747  98.1257
O  39.0177  44.8156  86.9390
O  51.5072  61.3065  38.7068
O  45.2782  67.3674  35.4044
O  46.2184  58.9014  44.5886
O  55.2796  65.3588  41.3514
O  48.8178  54.5514  49.3479
O  34.9932  64.9598  37.3976
O  47.6697  57.8533  47.7060
O  50.9579  55.6304  47.8943
O  47.2189  52.3620  35.8604
O  42.8408  53.7157  34.5609
O  43.6725  57.0562  58.4663
O  35.6491  66.7286  68.3986
O  39.7495  60.7138  61.5440
O  43.1856  57.5906  53.1263
O  44.0298  55.4709  64.9616
O  42.3257  61.6929  62.5596
O  51.3798  64.8748  62.9428
O  42.6063  66.2723  55.2294
O  43.4681  56.6025  67.7828
O  45.7898  69.1751  64.3242
O  51.8789  53.7314  70.1155
O  51.2426  64.1118  80.2815
O  34.6690  61.8881  69.0035
O  53.4227  51.6887  78.8174
O  41.6776  68.0978  79.0747
O  54.6124  62.2658  74.2417
O  35.8434  51.7502  77.9657
O  45.7336  61.2008  85.8503
O  35.7293  67.2655  97.3085
O  48.5082  55.5193  95.2283
O  40.1278  51.5246  91.6549
O  50.5987  53.8260  95.5342
O  40.0749  54.2380  96.3064
O  52.9933  54.5317  96.5398
O  34.2622  59.8627  93.8003
O  54.9682  59.6428  91.8689
O  56.1589  56.2490  101.9270
O  53.8150  57.4376  87.7072
O  50.8692  62.9351  103.2700
O  46.8921  64.4074  102.2530
O  37.2187  60.6378  90.7785
O  41.6981  57.1270  99.9943
O  39.1973  58.3613  99.9291
O  52.5484  56.2261  103.7220
O  38.1022  52.3260  100.5880
O  53.2268  81.8659  45.7346
O  49.4140  82.7489  35.9770
O  45.5529  70.3670  41.2178
O  43.3053  85.1920  37.1508
O  37.1191  82.1650  37.2252
O  44.8272  74.7512  43.7757
O  43.3782  85.9657  41.4635
O  51.5181  75.3697  38.3295
O  47.3657  74.4293  38.4108
O  45.9600  72.8978  45.7897
O  40.7343  70.8588  41.9686
O  35.1606  86.2129  36.8610
O  50.7133  85.8436  41.6533
O  48.3219  81.5454  51.9920
O  43.9435  77.4253  65.0244
O  56.4124  83.5312  51.9601
O  50.8471  82.6402  62.4410
O  53.9132  85.0219  58.6039
O  56.3776  77.1973  66.2072
O  49.3047  70.2424  60.8266
O  40.3891  81.6816  68.1403
O  34.9311  73.8001  67.2298
O  54.9025  70.6858  68.2326
O  56.5246  79.8127  54.6816
O  48.6270  79.8014  66.9534
O  49.6657  77.8323  65.2346
O  46.6345  70.4871  52.3789
O  39.8398  78.1491  82.8760
O  38.3556  82.5416  80.8263
O  36.4460  81.7928  72.6611
O  47.4845  73.9065  75.6337
O  50.7854  86.3653  77.5484
O  51.7288  86.0460  83.3295
O  42.4669  84.9099  83.0209
O  34.6024  85.6821  74.8219
O  37.4188  70.6251  81.8484
O  43.6894  72.0894  76.9585
O  55.1659  77.5475  78.5749
O  48.8330  78.9819  75.9719
O  50.9065  74.5277  85.6745
O  46.6439  76.7353  78.8665
O  55.2652  74.8905  73.6628
O  44.0646  81.3099  80.3853
O  47.3812  86.2644  85.0806
O  40.6757  76.3166  89.0286
O  52.3340  79.7491  87.2766
O  34.1317  69.6490  100.8220
O  56.2665  71.3388  97.2941
O  48.1375  78.1470  103.4290
O  35.3127  76.9704  103.1990
O  41.9553  73.0365  95.6196
O  47.1726  71.7131  93.5550
O  48.7564  84.6651  101.8360
O  42.4003  70.0399  99.7159
O  52.0960  72.1414  97.6092
O  39.8307  70.1917  87.5827
O  42.1275  84.4243  92.1550
O  38.9278  82.6742  101.7700
O  56.5270  82.1782  94.6141
O  37.8462  86.3100  86.6138
O  41.9383  90.9534  43.2232
O  39.4638  98.0010  37.9165
O  50.9037  101.6200  44.7510
O  38.7224  98.4775  47.3802
O  50.4833  88.6224  45.5603
O  49.1384  99.4515  51.1343
O  40.5708  103.7800  41.7391
O  40.6669  97.2408  42.8374
O  47.0409  95.5631  46.7796
O  39.0981  89.6644  44.7161
O  55.0255  88.7534  42.9101
O  43.5413  101.2120  43.7563
O  47.3228  102.9930  60.4028
O  45.6976  88.4497  52.8647
O  37.1454  94.1094  53.3157
O  51.2320  88.9971  54.3989
O  55.1327  88.6321  54.0463
O  56.2122  100.5390  59.9515
O  48.9862  94.4640  58.1454
O  44.0929  91.8377  60.2575
O  43.6221  99.7946  64.2906
O  57.2487  88.5241  55.7275
O  52.6331  88.8554  79.2590
O  41.7200  87.4701  69.2471
O  40.5031  97.7807  83.2301
O  50.0932  96.6860  79.1757
O  49.5412  88.0398  82.0145
O  37.2817  103.7760  80.0484
O  54.1413  102.8270  77.6719
O  52.9758  102.4330  73.1082
O  47.1864  96.3131  69.2343
O  47.1715  87.1429  70.6211
O  55.4428  102.8590  80.8659
O  44.3885  98.2891  76.9727
O  50.9368  97.9709  82.0343
O  41.9975  101.0470  84.2932
O  42.0248  99.0282  72.5902
O  56.7132  89.1798  78.3507
O  50.8693  97.7327  85.4732
O  57.1994  93.4047  69.7429
O  54.2026  88.8196  89.8975
O  47.1776  87.6245  95.7137
O  47.3187  101.0470  92.2762
O  49.9067  95.3991  97.3755
O  47.5020  101.7530  89.6807
O  52.8059  102.2950  94.3042
O  55.8981  91.4646  90.1422
O  56.4683  97.6429  100.4550
O  35.4802  101.4040  90.9840
O  44.1719  100.8230  93.9705
O  54.3312  97.7712  102.0910
O  42.4701  95.8467  98.8553
O  50.0655  93.0644  89.7191
O  45.2935  91.8260  87.7067
O  46.4633  87.0218  99.6539
O  42.4127  93.3538  100.0400
O  45.4556  96.6263  91.2756
O  56.3755  99.8533  90.2607
O  54.6606  99.1092  92.1318
O  40.4363  99.2825  96.9283
O  55.9790  102.4120  91.4626
O  47.9628  91.4388  89.0421
O  55.4823  95.5567  93.3983
O  74.5979  42.1160  41.8700
O  60.7139  47.9453  35.0047
O  65.5405  35.2255  39.3810
O  68.8000  40.7578  46.8766
O  70.9055  49.1132  39.4944
O  78.3236  39.7440  38.0046
O  61.1905  36.8882  54.9070
O  65.7779  35.5925  53.0036
O  78.6834  37.3461  65.7890
O  67.4307  39.3658  56.2524
O  72.2512  41.0192  66.5845
O  58.4578  38.4002  61.5060
O  70.5401  45.5902  64.5406
O  77.5438  41.8384  62.3139
O  77.5639  37.9893  63.1914
O  61.9192  41.4995  52.3974
O  78.7217  50.6791  53.5382
O  59.8458  34.0583  58.7013
O  76.5924  49.7562  80.2364
O  75.8332  41.1559  83.5599
O  77.6669  41.5511  69.6755
O  80.4090  43.4950  78.2249
O  58.5409  34.5235  77.9509
O  73.6259  47.1491  83.5154
O  74.5991  38.4808  71.7829
O  64.4477  35.4535  84.4953
O  80.8326  38.5459  73.0833
O  74.0978  39.5498  88.9024
O  58.2044  35.3222  94.5397
O  76.5588  36.3479  95.4798
O  65.0375  44.8593  97.2579
O  62.3423  35.3622  91.1854
O  76.0230  48.7649  102.5190
O  71.9237  40.8230  88.0510
O  65.5346  43.2450  91.9356
O  72.6193  50.1510  92.5791
O  60.8861  44.7690  98.8918
O  75.8617  35.2166  102.9930
O  67.8248  34.0047  99.7344
O  67.1904  46.2423  103.9520
O  60.3660  58.7847  48.5853
O  62.3139  63.4879  40.1563
O  64.5061  63.6836  41.6069
O  74.9456  57.4214  37.6537
O  72.1243  59.9999  44.2738
O  71.3343  54.2221  38.3588
O  73.2313  59.9781  38.6124
O  69.1149  53.7393  48.8863
O  75.1533  61.1245  46.5397
O  57.8897  52.6659  45.1744
O  80.3158  62.8237  37.7916
O  79.0619  58.5466  65.1550
O  70.4132  63.5257  65.2467
O  60.5822  55.9081  59.4763
O  75.9462  52.5122  63.1287
O  70.9891  58.9785  59.5848
O  64.0407  56.1022  52.6293
O  69.5702  61.0394  65.3517
O  67.2775  60.4787  54.7573
O  74.3037  59.3028  65.7670
O  72.3359  57.2794  68.4593
O  59.9681  60.0545  51.7521
O  57.4620  59.5854  59.8997
O  61.6553  57.0933  71.1522
O  58.8574  62.2554  71.7034
O  63.1375  56.3201  77.6054
O  77.6355  60.8064  85.6122
O  70.9638  67.1480  82.0870
O  71.6982  65.0032  83.5251
O  76.6924  52.3637  79.0932
O  78.4431  59.8786  79.0143
O  59.9279  66.0902  85.1226
O  59.3718  54.4942  73.0136
O  57.4700  67.0613  85.0352
O  72.8331  68.9360  81.7093
O  74.8062  65.9367  89.0139
O  68.4392  56.0707  92.1026
O  70.0768  68.0129  94.8857
O  66.9216  62.1590  93.8508
O  75.0371  68.8481  92.7086
O  57.4919  58.0218  95.8723
O  78.5549  61.2513  96.6661
O  74.6606  59.5349  89.1887
O  58.0545  53.0243  94.8056
O  61.9780  61.8366  93.2573
O  62.9570  54.7010  99.7361
O  73.1853  66.0383  95.3311
O  77.1223  61.9820  94.3364
O  63.0919  53.9699  93.1545
O  77.1016  62.6307  100.7390
O  59.0449  55.9122  96.4233
O  64.8390  58.2118  89.9548
O  64.8534  66.9197  86.8298
O  70.8945  69.1770  87.6569
O  66.6852  78.2499  37.5003
O  65.6322  72.7451  34.7707
O  62.3213  73.9614  44.7774
O  68.6540  82.3193  34.7649
O  71.7239  74.6441  44.0519
O  72.5481  81.8011  38.0879
O  65.4204  70.1375  36.8148
O  70.4198  72.8119  45.6135
O  58.0525  83.4883  49.6981
O  71.3097  79.7580  42.4544
O  74.3166  78.2183  49.2897
O  72.5743  70.6271  46.4144
O  65.1093  70.5952  42.3504
O  68.5417  71.1580  38.0608
O  80.1762  75.0408  40.0128
O  59.4888  70.4355  55.4159
O  71.7370  83.3600  52.2491
O  71.2735  79.1213  54.0845
O  66.6020  79.1199  68.4009
O  76.3434  72.1344  67.9186
O  71.0742  75.9002  63.9284
O  72.5057  84.8172  56.5680
O  77.1894  74.2204  52.6468
O  78.7780  81.0467  66.1938
O  68.3437  85.1620  53.2876
O  76.6515  78.5825  61.4096
O  78.3382  83.0330  62.2449
O  76.4086  72.3414  75.2833
O  74.6597  78.5969  73.8902
O  64.7467  81.2856  79.2415
O  76.1795  70.6299  71.5726
O  71.4447  71.1733  81.3533
O  62.8950  84.3734  83.5869
O  65.9181  71.6901  84.3775
O  61.1118  85.7616  81.3210
O  57.7320  77.1062  77.9155
O  58.7320  85.9712  71.9689
O  73.1619  73.7039  74.5958
O  70.3989  86.5664  84.6052
O  58.8223  83.0402  97.7329
O  77.2538  82.5629  95.4509
O  59.2693  80.1452  90.8735
O  58.8602  78.0239  92.3952
O  72.1623  74.7804  88.7043
O  70.2447  82.0328  97.2617
O  67.0629  73.3828  94.3736
O  67.3722  85.2619  95.8210
O  75.7572  73.8252  92.3374
O  66.0101  81.9130  94.1714
O  61.5551  82.4966  90.9800
O  57.9567  96.4231  49.3136
O  63.9606  92.5272  39.5640
O  62.8846  92.5449  33.7868
O  63.3015  87.5098  49.8862
O  62.1569  92.2041  47.5814
O  63.2787  89.3184  44.7569
O  64.6571  88.9829  37.9616
O  58.2245  93.4365  36.4739
O  76.3502  93.6662  48.1607
O  59.0258  98.3384  34.8722
O  60.6462  93.6704  50.1685
O  75.2775  104.0170  36.2500
O  60.6561  97.0117  52.4435
O  65.6348  87.6115  57.1922
O  58.2294  101.7850  52.1530
O  79.6522  88.8381  54.3636
O  68.3612  89.3286  55.9853
O  79.3985  93.1555  65.9967
O  69.7016  96.6732  54.6638
O  69.1319  97.5587  66.8889
O  58.0728  97.6142  59.6117
O  69.0645  87.0113  63.7923
O  58.1849  97.7360  52.0543
O  67.1993  93.0633  75.6955
O  65.3866  88.7646  74.3028
O  73.2387  102.4720  74.0556
O  63.7636  94.1389  77.0801
O  62.4209  97.1156  72.0511
O  75.6213  96.3459  84.3273
O  60.0855  90.2185  72.2935
O  71.0408  90.5353  76.1814
O  67.2574  90.6908  74.3937
O  60.9179  101.6300  84.0659
O  77.6573  93.7839  82.9444
O  70.9429  92.3678  83.0821
O  70.9515  87.6489  79.3020
O  79.9646  102.8470  85.2295
O  58.3998  95.6671  79.8576
O  59.2859  99.5718  100.3040
O  66.8722  95.7867  97.5995
O  67.9585  102.1670  103.7220
O  60.8882  103.4750  103.1260
O  68.1058  96.4258  89.0987
O  60.5737  93.4747  101.1970
O  65.7225  100.8890  90.6546
O  76.9245  88.7765  97.2433
O  75.9840  102.7360  97.7312
O  64.3062  91.1955  97.2694
O  77.7971  97.0225  98.7107
O  78.6175  99.6400  98.4694
O  71.7952  94.8290  98.4656
O  67.0706  99.8184  102.5880
O  69.6242  99.9698  103.5020
O  88.6399  37.8589  34.7408
O  92.6961  40.3735  41.9432
O  84.6714  39.9195  36.7219
O  90.9839  50.6774  42.1543
O  86.1046  40.9716  41.9594
O  100.2480  50.7684  38.5053
O  92.4050  46.3424  34.3864
O  98.6377  43.8494  51.7681
O  99.2889  44.3599  61.4543
O  92.0449  46.7700  60.6069
O  94.6741  43.8390  56.2118
O  83.7029  47.7675  67.8929
O  96.5463  46.7434  60.1374
O  98.2105  48.1319  61.7906
O  80.9732  37.0435  53.3357
O  102.3430  47.9725  55.7985
O  93.7145  51.5017  68.5375
O  97.6399  47.3038  64.9325
O  95.0455  38.5934  65.5122
O  103.3220  41.4545  56.3167
O  81.1987  48.7786  67.8309
O  80.9118  43.3651  66.7926
O  81.2536  39.6962  75.6019
O  90.3909  37.6864  86.2012
O  88.0260  43.4125  70.3625
O  96.0577  37.0036  74.9616
O  86.6712  35.6847  81.9508
O  81.5865  41.2203  72.2177
O  100.0210  40.0688  78.0979
O  96.2183  50.8107  80.8057
O  90.7000  37.6012  81.4822
O  88.0972  38.2102  82.1875
O  85.8845  49.6631  72.4116
O  98.2008  46.9378  75.5383
O  85.4650  34.1812  77.4019
O  98.5112  44.9904  72.9412
O  95.9960  36.1087  69.3122
O  94.7360  39.5383  86.6640
O  101.9790  36.9670  102.0170
O  94.5285  35.4035  95.9166
O  101.7290  39.5514  93.0440
O  82.3145  45.9766  90.5225
O  99.9950  43.1033  89.7540
O  98.9205  44.5730  91.6974
O  81.0782  34.6910  101.8330
O  88.8516  49.2238  99.8548
O  91.5174  34.3393  88.6898
O  101.1950  45.9863  93.2583
O  100.4280  39.3595  90.3804
O  100.6440  45.9576  102.4950
O  92.6297  40.7602  90.5108
O  93.1866  41.7843  87.7276
O  103.3610  48.7910  92.0951
O  102.6480  34.6797  88.4151
O  81.7908  59.1244  38.8282
O  84.0470  64.3629  40.7049
O  82.2823  67.7424  47.6618
O  101.5980  58.9549  34.9732
O  85.9697  58.0528  43.5691
O  95.4363  67.9405  43.0409
O  100.6600  57.4754  45.1490
O  94.9810  59.6560  48.7101
O  80.9430  52.2256  44.0709
O  81.2637  61.5196  39.8311
O  103.7070  57.7476  44.6645
O  103.6450  58.1910  57.7728
O  99.3775  59.0467  61.1864
O  91.8885  67.1759  59.4207
O  96.1448  56.4267  55.1795
O  90.4815  55.8643  60.5367
O  100.5790  62.7997  69.0321
O  91.2831  53.8032  63.8345
O  99.1526  62.5734  62.6592
O  93.1041  54.0861  68.5235
O  84.9645  57.2483  56.6349
O  94.6341  62.6822  62.0609
O  86.9461  58.2328  66.6604
O  101.1340  68.9042  82.7745
O  96.1726  55.6177  81.5889
O  95.9832  51.2185  78.0722
O  94.9394  63.4493  70.2843
O  85.4015  68.1718  84.4193
O  87.3175  60.9212  79.7525
O  80.8829  56.1719  79.7296
O  87.7934  56.6331  69.0955
O  86.6334  66.1528  74.9484
O  102.7730  51.8415  84.6243
O  92.7137  53.0792  82.6982
O  103.6930  58.4516  74.6121
O  82.8775  60.8564  78.8822
O  102.8060  68.2305  73.8723
O  89.7513  68.3970  70.0859
O  102.0740  64.3134  79.8785
O  94.1391  58.1005  80.8429
O  87.0660  51.7822  80.5288
O  95.9557  65.4557  80.3540
O  87.9269  58.8019  86.4844
O  81.9190  59.2050  99.6342
O  81.2729  61.0523  95.9526
O  102.7270  54.3358  87.2397
O  80.9607  67.6520  88.2467
O  103.8740  57.3392  98.5403
O  103.4830  68.0488  98.4101
O  93.1715  66.9015  96.9811
O  100.6230  66.3481  92.5413
O  88.1519  55.6130  91.5874
O  80.8411  64.6493  87.3544
O  96.1910  69.9393  39.8781
O  94.8054  77.4647  42.3222
O  81.4889  78.0072  49.6194
O  98.2915  79.5481  34.4417
O  83.9467  69.1895  49.5013
O  89.7543  81.8416  48.4083
O  97.7774  80.4352  44.6848
O  100.5200  70.3416  42.9119
O  92.3581  84.8564  50.4960
O  83.1946  69.4373  57.8158
O  81.0381  79.3481  65.0363
O  81.0625  72.1637  65.9044
O  86.3357  85.6292  66.7641
O  98.2838  85.7103  55.2389
O  97.0228  78.9669  55.8125
O  100.4820  72.4478  52.7424
O  80.5405  84.3553  67.9721
O  95.1860  86.5284  54.1635
O  100.4630  70.1277  80.5114
O  90.0892  81.0303  85.8988
O  83.2059  80.1762  81.0114
O  91.3141  82.7547  84.3286
O  100.2300  74.6168  85.0250
O  100.6090  76.2557  73.3631
O  80.7229  73.2483  71.3846
O  93.4086  75.6338  83.7727
O  89.9156  74.5141  80.8891
O  97.1061  70.6076  73.1103
O  88.1215  86.4047  86.2840
O  91.0796  73.8712  71.8896
O  95.9809  82.7496  71.9532
O  94.4711  79.7468  80.3383
O  87.6308  70.6288  80.6824
O  97.9022  73.1556  85.2107
O  89.4193  86.2234  83.4042
O  93.5942  86.1361  84.2939
O  91.9981  75.4339  86.1723
O  89.6356  69.0562  88.4889
O  96.3994  79.5500  94.1386
O  84.0277  80.2304  94.4572
O  87.4353  79.4865  90.3491
O  96.4648  82.5512  89.9073
O  83.8317  85.6842  92.2053
O  96.4953  80.4183  88.3995
O  101.9590  74.9510  89.8139
O  94.2408  84.7024  102.1010
O  88.1941  72.5952  103.5010
O  96.9016  71.6058  99.0289
O  102.2020  75.0369  96.7187
O  98.4103  71.3501  94.6155
O  98.7982  86.0957  94.4047
O  90.8551  73.4941  87.5655
O  91.3303  84.9461  86.4913
O  88.3784  83.8341  103.2050
O  100.8720  99.7222  35.7872
O  93.5846  92.6711  41.1214
O  82.5943  94.0272  34.8230
O  103.8910  97.7577  38.5308
O  83.1529  102.4620  36.2364
O  94.3498  103.3750  34.8717
O  92.0684  96.9742  50.3441
O  96.8539  98.2748  50.4547
O  93.4023  94.0802  50.4690
O  92.3136  102.2290  50.6657
O  83.8562  93.7659  45.4241
O  104.2350  91.7599  42.0022
O  93.8591  97.8099  66.4235
O  86.6976  89.5068  58.6019
O  84.5472  97.4180  52.8417
O  102.6070  97.0101  63.9580
O  87.1553  98.0511  63.7390
O  98.9965  90.5199  54.3119
O  103.3820  97.0430  58.2421
O  94.4998  90.9236  61.8415
O  99.3503  87.0711  61.0973
O  99.9630  88.3787  55.6471
O  102.5130  88.7734  51.7425
O  95.9400  91.4074  54.1528
O  89.2872  90.5289  53.6788
O  103.8680  87.3705  85.1006
O  92.2317  87.1112  75.1326
O  103.9950  91.0737  83.6794
O  85.4330  103.6830  73.9298
O  91.6699  96.3097  84.3158
O  91.1144  88.9392  73.2827
O  101.9440  100.2750  86.7056
O  98.3493  98.9567  72.3853
O  80.9359  88.6125  73.7592
O  102.7130  86.8321  93.5344
O  102.7080  100.7060  91.2732
O  92.0119  97.1013  97.8996
O  94.8373  89.7952  97.5303
O  98.5583  97.1740  101.2170
O  82.4987  95.7375  86.8877
O  95.0123  100.6820  94.6573
O  97.4519  96.0279  93.9662
O  88.6072  90.7627  94.7858
